C19H12
APtclcactv01171906123D 0   0.00000     0.00000
 
 31 35  0  0  0  0  0  0  0  0999 V2000
   -2.3100    2.2120   -0.0019 C   0  0  0  0  0  0  0  0  0  0  0  0
   -1.0026    2.5974   -0.0026 C   0  0  0  0  0  0  0  0  0  0  0  0
    1.4423    1.8758   -0.0010 C   0  0  0  0  0  0  0  0  0  0  0  0
    3.7235    1.0262    0.0050 C   0  0  0  0  0  0  0  0  0  0  0  0
    4.5915   -0.0168    0.0057 C   0  0  0  0  0  0  0  0  0  0  0  0
    4.1497   -1.3389    0.0009 C   0  0  0  0  0  0  0  0  0  0  0  0
    2.8259   -1.6444   -0.0025 C   0  0  0  0  0  0  0  0  0  0  0  0
   -4.0111    0.3030    0.0043 C   0  0  0  0  0  0  0  0  0  0  0  0
   -4.1832   -1.0587    0.0055 C   0  0  0  0  0  0  0  0  0  0  0  0
   -3.1329   -1.9783    0.0030 C   0  0  0  0  0  0  0  0  0  0  0  0
   -0.4283   -2.0751   -0.0047 C   0  0  0  0  0  0  0  0  0  0  0  0
   -1.8382   -1.5250   -0.0012 C   0  0  0  0  0  0  0  0  0  0  0  0
    0.5031   -0.8815   -0.0036 C   0  0  0  0  0  0  0  0  0  0  0  0
   -2.7064    0.8091   -0.0000 C   0  0  0  0  0  0  0  0  0  0  0  0
    0.0796    1.6162   -0.0022 C   0  0  0  0  0  0  0  0  0  0  0  0
    2.3317    0.7854    0.0007 C   0  0  0  0  0  0  0  0  0  0  0  0
    1.8701   -0.6112   -0.0019 C   0  0  0  0  0  0  0  0  0  0  0  0
   -1.6949   -0.1517   -0.0018 C   0  0  0  0  0  0  0  0  0  0  0  0
   -0.3094    0.2199   -0.0028 C   0  0  0  0  0  0  0  0  0  0  0  0
   -0.2614   -2.6797    0.8868 H   0  0  0  0  0  0  0  0  0  0  0  0
   -0.2641   -2.6755   -0.8994 H   0  0  0  0  0  0  0  0  0  0  0  0
   -3.0780    2.9714    0.0018 H   0  0  0  0  0  0  0  0  0  0  0  0
   -0.7617    3.6502   -0.0038 H   0  0  0  0  0  0  0  0  0  0  0  0
    1.8117    2.8906   -0.0016 H   0  0  0  0  0  0  0  0  0  0  0  0
    4.0966    2.0398    0.0080 H   0  0  0  0  0  0  0  0  0  0  0  0
    5.6529    0.1827    0.0097 H   0  0  0  0  0  0  0  0  0  0  0  0
    4.8760   -2.1382    0.0002 H   0  0  0  0  0  0  0  0  0  0  0  0
    2.5081   -2.6765   -0.0070 H   0  0  0  0  0  0  0  0  0  0  0  0
   -4.8622    0.9679    0.0064 H   0  0  0  0  0  0  0  0  0  0  0  0
   -5.1928   -1.4421    0.0090 H   0  0  0  0  0  0  0  0  0  0  0  0
   -3.3382   -3.0387    0.0041 H   0  0  0  0  0  0  0  0  0  0  0  0
 11 12  1  0  0  0  0
 11 13  1  0  0  0  0
 12 18  1  0  0  0  0
 10 12  2  0  0  0  0
 14 18  1  0  0  0  0
 18 19  2  0  0  0  0
  1 14  2  0  0  0  0
  8 14  1  0  0  0  0
  1  2  1  0  0  0  0
  2 15  2  0  0  0  0
  3 15  1  0  0  0  0
 15 19  1  0  0  0  0
  3 16  2  0  0  0  0
  4 16  1  0  0  0  0
 16 17  1  0  0  0  0
  4  5  2  0  0  0  0
  5  6  1  0  0  0  0
  6  7  2  0  0  0  0
  7 17  1  0  0  0  0
 13 17  2  0  0  0  0
 13 19  1  0  0  0  0
  8  9  2  0  0  0  0
  9 10  1  0  0  0  0
 11 20  1  0  0  0  0
 11 21  1  0  0  0  0
  1 22  1  0  0  0  0
  2 23  1  0  0  0  0
  3 24  1  0  0  0  0
  4 25  1  0  0  0  0
  5 26  1  0  0  0  0
  6 27  1  0  0  0  0
  7 28  1  0  0  0  0
  8 29  1  0  0  0  0
  9 30  1  0  0  0  0
 10 31  1  0  0  0  0
M  END
$$$$
