C18H12
APtclcactv01171906123D 0   0.00000     0.00000
 
 30 33  0  0  0  0  0  0  0  0999 V2000
    2.0130   -1.9978    0.0009 C   0  0  0  0  0  0  0  0  0  0  0  0
    2.7456    0.7096   -0.0008 C   0  0  0  0  0  0  0  0  0  0  0  0
   -0.7588   -2.7326    0.0006 C   0  0  0  0  0  0  0  0  0  0  0  0
    3.3368   -1.6212    0.0005 C   0  0  0  0  0  0  0  0  0  0  0  0
    0.7238    2.7417   -0.0006 C   0  0  0  0  0  0  0  0  0  0  0  0
    3.6990   -0.2831   -0.0003 C   0  0  0  0  0  0  0  0  0  0  0  0
   -2.7363   -0.7435   -0.0011 C   0  0  0  0  0  0  0  0  0  0  0  0
   -2.0954   -3.0611    0.0000 C   0  0  0  0  0  0  0  0  0  0  0  0
   -1.9873    2.0225    0.0011 C   0  0  0  0  0  0  0  0  0  0  0  0
   -0.2643    3.6999   -0.0001 C   0  0  0  0  0  0  0  0  0  0  0  0
   -3.0728   -2.0782   -0.0008 C   0  0  0  0  0  0  0  0  0  0  0  0
   -1.6042    3.3446    0.0008 C   0  0  0  0  0  0  0  0  0  0  0  0
    1.0140   -1.0219    0.0004 C   0  0  0  0  0  0  0  0  0  0  0  0
    1.3909    0.3704   -0.0004 C   0  0  0  0  0  0  0  0  0  0  0  0
   -0.3743   -1.3900    0.0003 C   0  0  0  0  0  0  0  0  0  0  0  0
    0.3780    1.3887   -0.0003 C   0  0  0  0  0  0  0  0  0  0  0  0
   -1.3914   -0.3673   -0.0005 C   0  0  0  0  0  0  0  0  0  0  0  0
   -1.0161    1.0190    0.0006 C   0  0  0  0  0  0  0  0  0  0  0  0
    1.7476   -3.0447   -0.0029 H   0  0  0  0  0  0  0  0  0  0  0  0
    3.0442    1.7475   -0.0014 H   0  0  0  0  0  0  0  0  0  0  0  0
   -0.0097   -3.5106    0.0016 H   0  0  0  0  0  0  0  0  0  0  0  0
    4.1054   -2.3799    0.0012 H   0  0  0  0  0  0  0  0  0  0  0  0
    1.7632    3.0353   -0.0016 H   0  0  0  0  0  0  0  0  0  0  0  0
    4.7453   -0.0155   -0.0010 H   0  0  0  0  0  0  0  0  0  0  0  0
   -3.5098    0.0103   -0.0021 H   0  0  0  0  0  0  0  0  0  0  0  0
   -2.3873   -4.1009    0.0003 H   0  0  0  0  0  0  0  0  0  0  0  0
   -3.0354    1.7622    0.0021 H   0  0  0  0  0  0  0  0  0  0  0  0
    0.0085    4.7449    0.0000 H   0  0  0  0  0  0  0  0  0  0  0  0
   -4.1144   -2.3639   -0.0009 H   0  0  0  0  0  0  0  0  0  0  0  0
   -2.3591    4.1169    0.0012 H   0  0  0  0  0  0  0  0  0  0  0  0
 13 14  2  0  0  0  0
 13 15  1  0  0  0  0
  1 13  1  0  0  0  0
 14 16  1  0  0  0  0
  2 14  1  0  0  0  0
 15 17  2  0  0  0  0
  3 15  1  0  0  0  0
  1  4  2  0  0  0  0
  1 19  1  0  0  0  0
 16 18  2  0  0  0  0
  5 16  1  0  0  0  0
  2  6  2  0  0  0  0
  2 20  1  0  0  0  0
  7 17  1  0  0  0  0
  3  8  2  0  0  0  0
  3 21  1  0  0  0  0
  4 22  1  0  0  0  0
  9 18  1  0  0  0  0
  5 10  2  0  0  0  0
  5 23  1  0  0  0  0
  6 24  1  0  0  0  0
  7 11  2  0  0  0  0
  7 25  1  0  0  0  0
  8 26  1  0  0  0  0
  9 12  2  0  0  0  0
  9 27  1  0  0  0  0
 10 28  1  0  0  0  0
 11 29  1  0  0  0  0
 12 30  1  0  0  0  0
 17 18  1  0  0  0  0
  4  6  1  0  0  0  0
  8 11  1  0  0  0  0
 10 12  1  0  0  0  0
M  END
$$$$
