C12H10
APtclcactv01171906123D 0   0.00000     0.00000
 
 22 24  0  0  0  0  0  0  0  0999 V2000
    0.7722   -2.3541   -0.0007 C   0  0  0  0  0  0  0  0  0  0  0  0
   -0.7722   -2.3541    0.0004 C   0  0  0  0  0  0  0  0  0  0  0  0
   -1.1706   -0.8984    0.0004 C   0  0  0  0  0  0  0  0  0  0  0  0
   -2.3575   -0.2315    0.0005 C   0  0  0  0  0  0  0  0  0  0  0  0
   -2.3823    1.1650   -0.0001 C   0  0  0  0  0  0  0  0  0  0  0  0
   -1.2420    1.9154   -0.0008 C   0  0  0  0  0  0  0  0  0  0  0  0
   -0.0000    1.2596   -0.0002 C   0  0  0  0  0  0  0  0  0  0  0  0
    1.2420    1.9154    0.0005 C   0  0  0  0  0  0  0  0  0  0  0  0
    2.3823    1.1650    0.0006 C   0  0  0  0  0  0  0  0  0  0  0  0
    2.3575   -0.2315   -0.0003 C   0  0  0  0  0  0  0  0  0  0  0  0
    1.1706   -0.8984   -0.0002 C   0  0  0  0  0  0  0  0  0  0  0  0
   -0.0000   -0.1468    0.0000 C   0  0  0  0  0  0  0  0  0  0  0  0
    1.1506   -2.8496    0.8934 H   0  0  0  0  0  0  0  0  0  0  0  0
    1.1493   -2.8487   -0.8958 H   0  0  0  0  0  0  0  0  0  0  0  0
   -1.1506   -2.8494   -0.8938 H   0  0  0  0  0  0  0  0  0  0  0  0
   -1.1493   -2.8490    0.8954 H   0  0  0  0  0  0  0  0  0  0  0  0
   -3.2847   -0.7852    0.0008 H   0  0  0  0  0  0  0  0  0  0  0  0
   -3.3375    1.6690   -0.0004 H   0  0  0  0  0  0  0  0  0  0  0  0
   -1.2940    2.9941   -0.0021 H   0  0  0  0  0  0  0  0  0  0  0  0
    1.2940    2.9941    0.0006 H   0  0  0  0  0  0  0  0  0  0  0  0
    3.3375    1.6690    0.0011 H   0  0  0  0  0  0  0  0  0  0  0  0
    3.2847   -0.7852   -0.0008 H   0  0  0  0  0  0  0  0  0  0  0  0
  1  2  1  0  0  0  0
  2  3  1  0  0  0  0
  3  4  2  0  0  0  0
  4  5  1  0  0  0  0
  5  6  2  0  0  0  0
  6  7  1  0  0  0  0
  7  8  2  0  0  0  0
  8  9  1  0  0  0  0
  9 10  2  0  0  0  0
 10 11  1  0  0  0  0
  1 11  1  0  0  0  0
 11 12  2  0  0  0  0
  3 12  1  0  0  0  0
  7 12  1  0  0  0  0
  1 13  1  0  0  0  0
  1 14  1  0  0  0  0
  2 15  1  0  0  0  0
  2 16  1  0  0  0  0
  4 17  1  0  0  0  0
  5 18  1  0  0  0  0
  6 19  1  0  0  0  0
  8 20  1  0  0  0  0
  9 21  1  0  0  0  0
 10 22  1  0  0  0  0
M  END
$$$$
