C20H12
APtclcactv01171906123D 0   0.00000     0.00000
 
 32 36  0  0  0  0  0  0  0  0999 V2000
    0.9457    2.3848    0.0013 C   0  0  0  0  0  0  0  0  0  0  0  0
   -0.8662   -2.2824    0.0018 C   0  0  0  0  0  0  0  0  0  0  0  0
    2.4297   -1.5428   -0.0026 C   0  0  0  0  0  0  0  0  0  0  0  0
   -2.4817    2.1719   -0.0020 C   0  0  0  0  0  0  0  0  0  0  0  0
    2.2868    2.1734    0.0023 C   0  0  0  0  0  0  0  0  0  0  0  0
   -2.1703   -2.7737    0.0020 C   0  0  0  0  0  0  0  0  0  0  0  0
    4.1857    0.6287    0.0013 C   0  0  0  0  0  0  0  0  0  0  0  0
    3.7785   -1.7330   -0.0036 C   0  0  0  0  0  0  0  0  0  0  0  0
   -3.7980    1.7131   -0.0024 C   0  0  0  0  0  0  0  0  0  0  0  0
   -3.2728   -1.9631    0.0013 C   0  0  0  0  0  0  0  0  0  0  0  0
   -4.1246    0.3843   -0.0012 C   0  0  0  0  0  0  0  0  0  0  0  0
    4.6542   -0.6499   -0.0007 C   0  0  0  0  0  0  0  0  0  0  0  0
    0.5163   -0.0096    0.0004 C   0  0  0  0  0  0  0  0  0  0  0  0
    0.0391    1.3151    0.0002 C   0  0  0  0  0  0  0  0  0  0  0  0
   -0.6454   -0.9137    0.0011 C   0  0  0  0  0  0  0  0  0  0  0  0
   -1.4360    1.2634   -0.0005 C   0  0  0  0  0  0  0  0  0  0  0  0
    1.9109   -0.2391   -0.0002 C   0  0  0  0  0  0  0  0  0  0  0  0
    2.8004    0.8630    0.0011 C   0  0  0  0  0  0  0  0  0  0  0  0
   -3.0922   -0.5692    0.0003 C   0  0  0  0  0  0  0  0  0  0  0  0
   -1.7793   -0.0924    0.0003 C   0  0  0  0  0  0  0  0  0  0  0  0
    0.5696    3.3972    0.0058 H   0  0  0  0  0  0  0  0  0  0  0  0
   -0.0299   -2.9659    0.0027 H   0  0  0  0  0  0  0  0  0  0  0  0
    1.7624   -2.3919   -0.0044 H   0  0  0  0  0  0  0  0  0  0  0  0
   -2.2777    3.2325   -0.0033 H   0  0  0  0  0  0  0  0  0  0  0  0
    2.9632    3.0154    0.0038 H   0  0  0  0  0  0  0  0  0  0  0  0
   -2.3177   -3.8436    0.0027 H   0  0  0  0  0  0  0  0  0  0  0  0
    4.8761    1.4592    0.0035 H   0  0  0  0  0  0  0  0  0  0  0  0
    4.1745   -2.7378   -0.0060 H   0  0  0  0  0  0  0  0  0  0  0  0
   -4.5969    2.4399   -0.0032 H   0  0  0  0  0  0  0  0  0  0  0  0
   -4.2659   -2.3876    0.0015 H   0  0  0  0  0  0  0  0  0  0  0  0
   -5.1589    0.0734   -0.0017 H   0  0  0  0  0  0  0  0  0  0  0  0
    5.7196   -0.8266   -0.0005 H   0  0  0  0  0  0  0  0  0  0  0  0
 13 14  1  0  0  0  0
 13 15  1  0  0  0  0
 13 17  2  0  0  0  0
 14 16  1  0  0  0  0
  1 14  2  0  0  0  0
 15 20  1  0  0  0  0
  2 15  2  0  0  0  0
 17 18  1  0  0  0  0
  3 17  1  0  0  0  0
  4 16  2  0  0  0  0
  1  5  1  0  0  0  0
 19 20  2  0  0  0  0
  2  6  1  0  0  0  0
  7 18  1  0  0  0  0
  3  8  2  0  0  0  0
  4  9  1  0  0  0  0
 10 19  1  0  0  0  0
 11 19  1  0  0  0  0
  7 12  2  0  0  0  0
 16 20  1  0  0  0  0
  5 18  2  0  0  0  0
  6 10  2  0  0  0  0
  8 12  1  0  0  0  0
  9 11  2  0  0  0  0
  1 21  1  0  0  0  0
  2 22  1  0  0  0  0
  3 23  1  0  0  0  0
  4 24  1  0  0  0  0
  5 25  1  0  0  0  0
  6 26  1  0  0  0  0
  7 27  1  0  0  0  0
  8 28  1  0  0  0  0
  9 29  1  0  0  0  0
 10 30  1  0  0  0  0
 11 31  1  0  0  0  0
 12 32  1  0  0  0  0
M  END
$$$$
