C25H16
APtclcactv01171906123D 0   0.00000     0.00000
 
 41 46  0  0  0  0  0  0  0  0999 V2000
   -3.5947   -2.2881   -0.1327 C   0  0  0  0  0  0  0  0  0  0  0  0
   -4.6133   -1.4045   -0.1797 C   0  0  0  0  0  0  0  0  0  0  0  0
   -4.3806   -0.0175   -0.0592 C   0  0  0  0  0  0  0  0  0  0  0  0
   -3.0579    0.4654    0.1034 C   0  0  0  0  0  0  0  0  0  0  0  0
   -1.9535   -0.4804   -0.0095 C   0  0  0  0  0  0  0  0  0  0  0  0
   -0.5574   -0.0825   -0.1450 C   0  0  0  0  0  0  0  0  0  0  0  0
   -0.1739    1.2345   -0.4282 C   0  0  0  0  0  0  0  0  0  0  0  0
    1.1391    1.6012   -0.4099 C   0  0  0  0  0  0  0  0  0  0  0  0
    2.1421    0.6575   -0.1824 C   0  0  0  0  0  0  0  0  0  0  0  0
    1.8106   -0.6965   -0.0067 C   0  0  0  0  0  0  0  0  0  0  0  0
    0.4437   -1.0750   -0.0000 C   0  0  0  0  0  0  0  0  0  0  0  0
    0.0805   -2.4273    0.1299 C   0  0  0  0  0  0  0  0  0  0  0  0
   -1.2171   -2.8070    0.1120 C   0  0  0  0  0  0  0  0  0  0  0  0
   -2.2551   -1.8602   -0.0041 C   0  0  0  0  0  0  0  0  0  0  0  0
    3.0432   -1.4632    0.1308 C   0  0  0  0  0  0  0  0  0  0  0  0
    4.1184   -0.6268    0.0864 C   0  0  0  0  0  0  0  0  0  0  0  0
    5.5644   -0.8856    0.1670 C   0  0  0  0  0  0  0  0  0  0  0  0
    6.4382    0.1155    0.1415 C   0  0  0  0  0  0  0  0  0  0  0  0
    5.9463    1.5370    0.0279 C   0  0  0  0  0  0  0  0  0  0  0  0
    4.4639    1.7938   -0.0974 C   0  0  0  0  0  0  0  0  0  0  0  0
    3.6133    0.7550   -0.0711 C   0  0  0  0  0  0  0  0  0  0  0  0
   -2.8688    1.8219    0.3830 C   0  0  0  0  0  0  0  0  0  0  0  0
   -3.9342    2.6759    0.3883 C   0  0  0  0  0  0  0  0  0  0  0  0
   -5.2204    2.2153    0.1306 C   0  0  0  0  0  0  0  0  0  0  0  0
   -5.4489    0.8908   -0.0964 C   0  0  0  0  0  0  0  0  0  0  0  0
   -3.8079   -3.3453   -0.1901 H   0  0  0  0  0  0  0  0  0  0  0  0
   -5.6228   -1.7639   -0.3093 H   0  0  0  0  0  0  0  0  0  0  0  0
   -0.9130    1.9683   -0.7133 H   0  0  0  0  0  0  0  0  0  0  0  0
    1.4050    2.6358   -0.5727 H   0  0  0  0  0  0  0  0  0  0  0  0
    0.8513   -3.1745    0.2448 H   0  0  0  0  0  0  0  0  0  0  0  0
   -1.4622   -3.8558    0.1896 H   0  0  0  0  0  0  0  0  0  0  0  0
    3.0963   -2.5355    0.2482 H   0  0  0  0  0  0  0  0  0  0  0  0
    5.9207   -1.9023    0.2448 H   0  0  0  0  0  0  0  0  0  0  0  0
    7.4967   -0.0886    0.2022 H   0  0  0  0  0  0  0  0  0  0  0  0
    6.2977    2.0749    0.9091 H   0  0  0  0  0  0  0  0  0  0  0  0
    6.4330    1.9857   -0.8378 H   0  0  0  0  0  0  0  0  0  0  0  0
    4.0913    2.8020   -0.2046 H   0  0  0  0  0  0  0  0  0  0  0  0
   -1.8928    2.2014    0.6443 H   0  0  0  0  0  0  0  0  0  0  0  0
   -3.7741    3.7239    0.5947 H   0  0  0  0  0  0  0  0  0  0  0  0
   -6.0440    2.9122    0.1085 H   0  0  0  0  0  0  0  0  0  0  0  0
   -6.4500    0.5426   -0.3047 H   0  0  0  0  0  0  0  0  0  0  0  0
  1  2  2  0  0  0  0
  2  3  1  0  0  0  0
  3  4  2  0  0  0  0
  4  5  1  0  0  0  0
  5  6  1  0  0  0  0
  6  7  1  0  0  0  0
  7  8  2  0  0  0  0
  8  9  1  0  0  0  0
  9 10  2  0  0  0  0
 10 11  1  0  0  0  0
  6 11  2  0  0  0  0
 11 12  1  0  0  0  0
 12 13  2  0  0  0  0
 13 14  1  0  0  0  0
  1 14  1  0  0  0  0
  5 14  2  0  0  0  0
 10 15  1  0  0  0  0
 15 16  2  0  0  0  0
 16 17  1  0  0  0  0
 17 18  2  0  0  0  0
 18 19  1  0  0  0  0
 19 20  1  0  0  0  0
 20 21  2  0  0  0  0
 16 21  1  0  0  0  0
  9 21  1  0  0  0  0
  4 22  1  0  0  0  0
 22 23  2  0  0  0  0
 23 24  1  0  0  0  0
 24 25  2  0  0  0  0
  3 25  1  0  0  0  0
  1 26  1  0  0  0  0
  2 27  1  0  0  0  0
  7 28  1  0  0  0  0
  8 29  1  0  0  0  0
 12 30  1  0  0  0  0
 13 31  1  0  0  0  0
 15 32  1  0  0  0  0
 17 33  1  0  0  0  0
 18 34  1  0  0  0  0
 19 35  1  0  0  0  0
 19 36  1  0  0  0  0
 20 37  1  0  0  0  0
 22 38  1  0  0  0  0
 23 39  1  0  0  0  0
 24 40  1  0  0  0  0
 25 41  1  0  0  0  0
M  END
$$$$
