C23H14
APtclcactv01171906123D 0   0.00000     0.00000
 
 37 42  0  0  0  0  0  0  0  0999 V2000
   -4.4608    1.4676   -0.0005 C   0  0  0  0  0  0  0  0  0  0  0  0
   -5.2830    0.3587   -0.0011 C   0  0  0  0  0  0  0  0  0  0  0  0
   -4.7644   -0.9211   -0.0011 C   0  0  0  0  0  0  0  0  0  0  0  0
   -3.3803   -1.1193   -0.0001 C   0  0  0  0  0  0  0  0  0  0  0  0
   -2.8318   -2.4252   -0.0000 C   0  0  0  0  0  0  0  0  0  0  0  0
   -1.4938   -2.6198    0.0004 C   0  0  0  0  0  0  0  0  0  0  0  0
   -0.5877   -1.4740    0.0008 C   0  0  0  0  0  0  0  0  0  0  0  0
    0.7959   -1.6354    0.0007 C   0  0  0  0  0  0  0  0  0  0  0  0
    1.6357   -0.5190    0.0006 C   0  0  0  0  0  0  0  0  0  0  0  0
    1.1014    0.7667    0.0008 C   0  0  0  0  0  0  0  0  0  0  0  0
   -0.2786    0.9581    0.0005 C   0  0  0  0  0  0  0  0  0  0  0  0
   -0.8688    2.2941    0.0002 C   0  0  0  0  0  0  0  0  0  0  0  0
   -2.2131    2.4403   -0.0002 C   0  0  0  0  0  0  0  0  0  0  0  0
   -3.0708    1.3131   -0.0000 C   0  0  0  0  0  0  0  0  0  0  0  0
   -2.5273    0.0082    0.0004 C   0  0  0  0  0  0  0  0  0  0  0  0
   -1.1322   -0.1693    0.0009 C   0  0  0  0  0  0  0  0  0  0  0  0
    2.2552    1.7402    0.0008 C   0  0  0  0  0  0  0  0  0  0  0  0
    3.5091    0.9012    0.0005 C   0  0  0  0  0  0  0  0  0  0  0  0
    4.8473    1.2348   -0.0003 C   0  0  0  0  0  0  0  0  0  0  0  0
    5.8087    0.2399   -0.0013 C   0  0  0  0  0  0  0  0  0  0  0  0
    5.4305   -1.0908   -0.0013 C   0  0  0  0  0  0  0  0  0  0  0  0
    4.0944   -1.4333   -0.0005 C   0  0  0  0  0  0  0  0  0  0  0  0
    3.1192   -0.4343    0.0004 C   0  0  0  0  0  0  0  0  0  0  0  0
   -4.8923    2.4577   -0.0050 H   0  0  0  0  0  0  0  0  0  0  0  0
   -6.3544    0.4950   -0.0011 H   0  0  0  0  0  0  0  0  0  0  0  0
   -5.4300   -1.7716   -0.0015 H   0  0  0  0  0  0  0  0  0  0  0  0
   -3.4929   -3.2792    0.0000 H   0  0  0  0  0  0  0  0  0  0  0  0
   -1.0946   -3.6233    0.0008 H   0  0  0  0  0  0  0  0  0  0  0  0
    1.2212   -2.6282    0.0010 H   0  0  0  0  0  0  0  0  0  0  0  0
   -0.2312    3.1658    0.0007 H   0  0  0  0  0  0  0  0  0  0  0  0
   -2.6396    3.4325    0.0004 H   0  0  0  0  0  0  0  0  0  0  0  0
    2.2205    2.3633   -0.8929 H   0  0  0  0  0  0  0  0  0  0  0  0
    2.2207    2.3630    0.8947 H   0  0  0  0  0  0  0  0  0  0  0  0
    5.1449    2.2730   -0.0006 H   0  0  0  0  0  0  0  0  0  0  0  0
    6.8563    0.5025   -0.0023 H   0  0  0  0  0  0  0  0  0  0  0  0
    6.1842   -1.8644   -0.0024 H   0  0  0  0  0  0  0  0  0  0  0  0
    3.8029   -2.4732   -0.0009 H   0  0  0  0  0  0  0  0  0  0  0  0
  1  2  2  0  0  0  0
  2  3  1  0  0  0  0
  3  4  2  0  0  0  0
  4  5  1  0  0  0  0
  5  6  2  0  0  0  0
  6  7  1  0  0  0  0
  7  8  1  0  0  0  0
  8  9  2  0  0  0  0
  9 10  1  0  0  0  0
 10 11  2  0  0  0  0
 11 12  1  0  0  0  0
 12 13  2  0  0  0  0
 13 14  1  0  0  0  0
  1 14  1  0  0  0  0
 14 15  2  0  0  0  0
  4 15  1  0  0  0  0
 15 16  1  0  0  0  0
 11 16  1  0  0  0  0
  7 16  2  0  0  0  0
 10 17  1  0  0  0  0
 17 18  1  0  0  0  0
 18 19  1  0  0  0  0
 19 20  2  0  0  0  0
 20 21  1  0  0  0  0
 21 22  2  0  0  0  0
 22 23  1  0  0  0  0
 18 23  2  0  0  0  0
  9 23  1  0  0  0  0
  1 24  1  0  0  0  0
  2 25  1  0  0  0  0
  3 26  1  0  0  0  0
  5 27  1  0  0  0  0
  6 28  1  0  0  0  0
  8 29  1  0  0  0  0
 12 30  1  0  0  0  0
 13 31  1  0  0  0  0
 17 32  1  0  0  0  0
 17 33  1  0  0  0  0
 19 34  1  0  0  0  0
 20 35  1  0  0  0  0
 21 36  1  0  0  0  0
 22 37  1  0  0  0  0
M  END
$$$$
