C21H12
APtclcactv01171906123D 0   0.00000     0.00000
 
 33 38  0  0  0  0  0  0  0  0999 V2000
   -0.0072   -3.0448    0.0015 C   0  0  0  0  0  0  0  0  0  0  0  0
   -1.1272   -2.2706   -0.0001 C   0  0  0  0  0  0  0  0  0  0  0  0
   -2.6345   -2.3829   -0.0021 C   0  0  0  0  0  0  0  0  0  0  0  0
   -3.4505   -1.0975   -0.0026 C   0  0  0  0  0  0  0  0  0  0  0  0
   -2.8754    0.1367   -0.0017 C   0  0  0  0  0  0  0  0  0  0  0  0
   -3.5800    1.3661   -0.0013 C   0  0  0  0  0  0  0  0  0  0  0  0
   -2.8792    2.5354    0.0009 C   0  0  0  0  0  0  0  0  0  0  0  0
   -1.4882    2.6155    0.0018 C   0  0  0  0  0  0  0  0  0  0  0  0
   -0.7081    1.4695    0.0008 C   0  0  0  0  0  0  0  0  0  0  0  0
    0.7685    1.4689    0.0005 C   0  0  0  0  0  0  0  0  0  0  0  0
    1.5661    2.6043    0.0005 C   0  0  0  0  0  0  0  0  0  0  0  0
    2.9506    2.4768   -0.0008 C   0  0  0  0  0  0  0  0  0  0  0  0
    3.6087    1.2622   -0.0022 C   0  0  0  0  0  0  0  0  0  0  0  0
    2.8617    0.0807   -0.0018 C   0  0  0  0  0  0  0  0  0  0  0  0
    3.3671   -1.2362   -0.0021 C   0  0  0  0  0  0  0  0  0  0  0  0
    2.5836   -2.3613   -0.0019 C   0  0  0  0  0  0  0  0  0  0  0  0
    1.1783   -2.2610    0.0031 C   0  0  0  0  0  0  0  0  0  0  0  0
    0.7306   -0.9411    0.0080 C   0  0  0  0  0  0  0  0  0  0  0  0
   -0.6909   -0.9421    0.0009 C   0  0  0  0  0  0  0  0  0  0  0  0
   -1.4069    0.2316    0.0001 C   0  0  0  0  0  0  0  0  0  0  0  0
    1.4568    0.2314   -0.0005 C   0  0  0  0  0  0  0  0  0  0  0  0
   -0.0184   -4.1247    0.0059 H   0  0  0  0  0  0  0  0  0  0  0  0
   -2.9228   -2.9589   -0.8814 H   0  0  0  0  0  0  0  0  0  0  0  0
   -2.9251   -2.9597    0.8759 H   0  0  0  0  0  0  0  0  0  0  0  0
   -4.5283   -1.1675   -0.0042 H   0  0  0  0  0  0  0  0  0  0  0  0
   -4.6599    1.3766   -0.0032 H   0  0  0  0  0  0  0  0  0  0  0  0
   -3.4383    3.4594    0.0018 H   0  0  0  0  0  0  0  0  0  0  0  0
   -1.0108    3.5843    0.0030 H   0  0  0  0  0  0  0  0  0  0  0  0
    1.1126    3.5845    0.0011 H   0  0  0  0  0  0  0  0  0  0  0  0
    3.5453    3.3784   -0.0011 H   0  0  0  0  0  0  0  0  0  0  0  0
    4.6881    1.2258   -0.0040 H   0  0  0  0  0  0  0  0  0  0  0  0
    4.4392   -1.3665   -0.0028 H   0  0  0  0  0  0  0  0  0  0  0  0
    3.0492   -3.3358   -0.0027 H   0  0  0  0  0  0  0  0  0  0  0  0
  1  2  2  0  0  0  0
  2  3  1  0  0  0  0
  3  4  1  0  0  0  0
  4  5  2  0  0  0  0
  5  6  1  0  0  0  0
  6  7  2  0  0  0  0
  7  8  1  0  0  0  0
  8  9  2  0  0  0  0
  9 10  1  0  0  0  0
 10 11  2  0  0  0  0
 11 12  1  0  0  0  0
 12 13  2  0  0  0  0
 13 14  1  0  0  0  0
 14 15  2  0  0  0  0
 15 16  1  0  0  0  0
 16 17  2  0  0  0  0
  1 17  1  0  0  0  0
 17 18  1  0  0  0  0
 18 19  1  0  0  0  0
  2 19  1  0  0  0  0
 19 20  2  0  0  0  0
  5 20  1  0  0  0  0
  9 20  1  0  0  0  0
 18 21  2  0  0  0  0
 14 21  1  0  0  0  0
 10 21  1  0  0  0  0
  1 22  1  0  0  0  0
  3 23  1  0  0  0  0
  3 24  1  0  0  0  0
  4 25  1  0  0  0  0
  6 26  1  0  0  0  0
  7 27  1  0  0  0  0
  8 28  1  0  0  0  0
 11 29  1  0  0  0  0
 12 30  1  0  0  0  0
 13 31  1  0  0  0  0
 15 32  1  0  0  0  0
 16 33  1  0  0  0  0
M  END
$$$$
