C19H12
APtclcactv01171906123D 0   0.00000     0.00000
 
 31 35  0  0  0  0  0  0  0  0999 V2000
   -3.1337   -1.9784    0.0028 C   0  0  0  0  0  0  0  0  0  0  0  0
   -4.1833   -1.0586    0.0033 C   0  0  0  0  0  0  0  0  0  0  0  0
   -4.0107    0.3034    0.0016 C   0  0  0  0  0  0  0  0  0  0  0  0
   -2.7064    0.8090   -0.0009 C   0  0  0  0  0  0  0  0  0  0  0  0
   -1.6951   -0.1520   -0.0011 C   0  0  0  0  0  0  0  0  0  0  0  0
   -1.8386   -1.5249    0.0003 C   0  0  0  0  0  0  0  0  0  0  0  0
   -0.4287   -2.0750   -0.0011 C   0  0  0  0  0  0  0  0  0  0  0  0
    0.5031   -0.8816   -0.0012 C   0  0  0  0  0  0  0  0  0  0  0  0
    1.8705   -0.6114   -0.0012 C   0  0  0  0  0  0  0  0  0  0  0  0
    2.8261   -1.6442   -0.0039 C   0  0  0  0  0  0  0  0  0  0  0  0
    4.1503   -1.3387   -0.0021 C   0  0  0  0  0  0  0  0  0  0  0  0
    4.5915   -0.0169    0.0030 C   0  0  0  0  0  0  0  0  0  0  0  0
    3.7233    1.0263    0.0048 C   0  0  0  0  0  0  0  0  0  0  0  0
    2.3320    0.7853    0.0012 C   0  0  0  0  0  0  0  0  0  0  0  0
    1.4420    1.8757    0.0017 C   0  0  0  0  0  0  0  0  0  0  0  0
    0.0799    1.6159   -0.0009 C   0  0  0  0  0  0  0  0  0  0  0  0
   -1.0027    2.5973   -0.0015 C   0  0  0  0  0  0  0  0  0  0  0  0
   -2.3099    2.2123   -0.0038 C   0  0  0  0  0  0  0  0  0  0  0  0
   -0.3090    0.2196   -0.0021 C   0  0  0  0  0  0  0  0  0  0  0  0
   -3.3391   -3.0386    0.0087 H   0  0  0  0  0  0  0  0  0  0  0  0
   -5.1931   -1.4416    0.0048 H   0  0  0  0  0  0  0  0  0  0  0  0
   -4.8616    0.9686    0.0019 H   0  0  0  0  0  0  0  0  0  0  0  0
   -0.2625   -2.6780    0.8915 H   0  0  0  0  0  0  0  0  0  0  0  0
   -0.2639   -2.6771   -0.8947 H   0  0  0  0  0  0  0  0  0  0  0  0
    2.5082   -2.6764   -0.0070 H   0  0  0  0  0  0  0  0  0  0  0  0
    4.8767   -2.1379   -0.0043 H   0  0  0  0  0  0  0  0  0  0  0  0
    5.6529    0.1827    0.0059 H   0  0  0  0  0  0  0  0  0  0  0  0
    4.0962    2.0399    0.0091 H   0  0  0  0  0  0  0  0  0  0  0  0
    1.8111    2.8907    0.0046 H   0  0  0  0  0  0  0  0  0  0  0  0
   -0.7618    3.6501   -0.0011 H   0  0  0  0  0  0  0  0  0  0  0  0
   -3.0778    2.9717   -0.0047 H   0  0  0  0  0  0  0  0  0  0  0  0
  1  2  2  0  0  0  0
  2  3  1  0  0  0  0
  3  4  2  0  0  0  0
  4  5  1  0  0  0  0
  5  6  2  0  0  0  0
  1  6  1  0  0  0  0
  6  7  1  0  0  0  0
  7  8  1  0  0  0  0
  8  9  1  0  0  0  0
  9 10  2  0  0  0  0
 10 11  1  0  0  0  0
 11 12  2  0  0  0  0
 12 13  1  0  0  0  0
 13 14  2  0  0  0  0
  9 14  1  0  0  0  0
 14 15  1  0  0  0  0
 15 16  2  0  0  0  0
 16 17  1  0  0  0  0
 17 18  2  0  0  0  0
  4 18  1  0  0  0  0
 16 19  1  0  0  0  0
  8 19  2  0  0  0  0
  5 19  1  0  0  0  0
  1 20  1  0  0  0  0
  2 21  1  0  0  0  0
  3 22  1  0  0  0  0
  7 23  1  0  0  0  0
  7 24  1  0  0  0  0
 10 25  1  0  0  0  0
 11 26  1  0  0  0  0
 12 27  1  0  0  0  0
 13 28  1  0  0  0  0
 15 29  1  0  0  0  0
 17 30  1  0  0  0  0
 18 31  1  0  0  0  0
M  END
$$$$
