C23H14
APtclcactv01171906123D 0   0.00000     0.00000
 
 37 42  0  0  0  0  0  0  0  0999 V2000
    4.8795   -0.6808    0.0101 C   0  0  0  0  0  0  0  0  0  0  0  0
    3.5555   -0.9515    0.0060 C   0  0  0  0  0  0  0  0  0  0  0  0
    2.8629   -2.2909    0.0086 C   0  0  0  0  0  0  0  0  0  0  0  0
    1.3360   -2.3355    0.0038 C   0  0  0  0  0  0  0  0  0  0  0  0
    0.6215   -1.1861   -0.0021 C   0  0  0  0  0  0  0  0  0  0  0  0
   -0.8418   -1.0254   -0.0061 C   0  0  0  0  0  0  0  0  0  0  0  0
   -1.6875   -2.1366   -0.0117 C   0  0  0  0  0  0  0  0  0  0  0  0
   -3.0392   -2.0085   -0.0101 C   0  0  0  0  0  0  0  0  0  0  0  0
   -3.6442   -0.7354   -0.0023 C   0  0  0  0  0  0  0  0  0  0  0  0
   -5.0426   -0.6008    0.0043 C   0  0  0  0  0  0  0  0  0  0  0  0
   -5.6007    0.6428    0.0120 C   0  0  0  0  0  0  0  0  0  0  0  0
   -4.8052    1.7837    0.0126 C   0  0  0  0  0  0  0  0  0  0  0  0
   -3.4429    1.6864    0.0058 C   0  0  0  0  0  0  0  0  0  0  0  0
   -2.8402    0.4264   -0.0006 C   0  0  0  0  0  0  0  0  0  0  0  0
   -1.3745    0.2888   -0.0046 C   0  0  0  0  0  0  0  0  0  0  0  0
   -0.5937    1.4580   -0.0084 C   0  0  0  0  0  0  0  0  0  0  0  0
    0.7994    1.4035   -0.0080 C   0  0  0  0  0  0  0  0  0  0  0  0
    1.3615    0.0647   -0.0041 C   0  0  0  0  0  0  0  0  0  0  0  0
    2.7152    0.1553   -0.0006 C   0  0  0  0  0  0  0  0  0  0  0  0
    3.0999    1.5579   -0.0041 C   0  0  0  0  0  0  0  0  0  0  0  0
    4.4991    1.7513    0.0001 C   0  0  0  0  0  0  0  0  0  0  0  0
    5.3132    0.6566    0.0065 C   0  0  0  0  0  0  0  0  0  0  0  0
    1.9088    2.2862   -0.0104 C   0  0  0  0  0  0  0  0  0  0  0  0
    5.5993   -1.4859    0.0206 H   0  0  0  0  0  0  0  0  0  0  0  0
    3.2100   -2.8417   -0.8656 H   0  0  0  0  0  0  0  0  0  0  0  0
    3.2043   -2.8353    0.8890 H   0  0  0  0  0  0  0  0  0  0  0  0
    0.8251   -3.2870    0.0047 H   0  0  0  0  0  0  0  0  0  0  0  0
   -1.2541   -3.1258   -0.0178 H   0  0  0  0  0  0  0  0  0  0  0  0
   -3.6586   -2.8932   -0.0153 H   0  0  0  0  0  0  0  0  0  0  0  0
   -5.6722   -1.4783    0.0030 H   0  0  0  0  0  0  0  0  0  0  0  0
   -6.6760    0.7436    0.0173 H   0  0  0  0  0  0  0  0  0  0  0  0
   -5.2703    2.7584    0.0183 H   0  0  0  0  0  0  0  0  0  0  0  0
   -2.8349    2.5790    0.0061 H   0  0  0  0  0  0  0  0  0  0  0  0
   -1.0843    2.4201   -0.0121 H   0  0  0  0  0  0  0  0  0  0  0  0
    4.9167    2.7473   -0.0023 H   0  0  0  0  0  0  0  0  0  0  0  0
    6.3789    0.8319    0.0099 H   0  0  0  0  0  0  0  0  0  0  0  0
    1.8422    3.3642   -0.0153 H   0  0  0  0  0  0  0  0  0  0  0  0
  1  2  2  0  0  0  0
  2  3  1  0  0  0  0
  3  4  1  0  0  0  0
  4  5  2  0  0  0  0
  5  6  1  0  0  0  0
  6  7  2  0  0  0  0
  7  8  1  0  0  0  0
  8  9  2  0  0  0  0
  9 10  1  0  0  0  0
 10 11  2  0  0  0  0
 11 12  1  0  0  0  0
 12 13  2  0  0  0  0
 13 14  1  0  0  0  0
  9 14  1  0  0  0  0
 14 15  2  0  0  0  0
  6 15  1  0  0  0  0
 15 16  1  0  0  0  0
 16 17  2  0  0  0  0
 17 18  1  0  0  0  0
  5 18  1  0  0  0  0
 18 19  2  0  0  0  0
  2 19  1  0  0  0  0
 19 20  1  0  0  0  0
 20 21  1  0  0  0  0
 21 22  2  0  0  0  0
  1 22  1  0  0  0  0
 20 23  2  0  0  0  0
 17 23  1  0  0  0  0
  1 24  1  0  0  0  0
  3 25  1  0  0  0  0
  3 26  1  0  0  0  0
  4 27  1  0  0  0  0
  7 28  1  0  0  0  0
  8 29  1  0  0  0  0
 10 30  1  0  0  0  0
 11 31  1  0  0  0  0
 12 32  1  0  0  0  0
 13 33  1  0  0  0  0
 16 34  1  0  0  0  0
 21 35  1  0  0  0  0
 22 36  1  0  0  0  0
 23 37  1  0  0  0  0
M  END
$$$$
