C23H14
APtclcactv01171906133D 0   0.00000     0.00000
 
 37 42  0  0  0  0  0  0  0  0999 V2000
    3.9771   -2.2196   -0.0013 C   0  0  0  0  0  0  0  0  0  0  0  0
    2.7415   -1.6228   -0.0010 C   0  0  0  0  0  0  0  0  0  0  0  0
    1.2783   -2.0096   -0.0021 C   0  0  0  0  0  0  0  0  0  0  0  0
    0.4893   -0.7175   -0.0011 C   0  0  0  0  0  0  0  0  0  0  0  0
   -0.8471   -0.2977   -0.0010 C   0  0  0  0  0  0  0  0  0  0  0  0
   -1.8847   -1.2330   -0.0004 C   0  0  0  0  0  0  0  0  0  0  0  0
   -3.2072   -0.8028    0.0001 C   0  0  0  0  0  0  0  0  0  0  0  0
   -4.2761   -1.7255    0.0022 C   0  0  0  0  0  0  0  0  0  0  0  0
   -5.5543   -1.2693    0.0030 C   0  0  0  0  0  0  0  0  0  0  0  0
   -5.8463    0.0957    0.0008 C   0  0  0  0  0  0  0  0  0  0  0  0
   -4.8676    1.0356   -0.0013 C   0  0  0  0  0  0  0  0  0  0  0  0
   -3.5136    0.6325   -0.0009 C   0  0  0  0  0  0  0  0  0  0  0  0
   -2.4858    1.5678   -0.0016 C   0  0  0  0  0  0  0  0  0  0  0  0
   -1.1490    1.1453   -0.0010 C   0  0  0  0  0  0  0  0  0  0  0  0
   -0.1321    2.1281   -0.0008 C   0  0  0  0  0  0  0  0  0  0  0  0
    1.1886    1.7161   -0.0001 C   0  0  0  0  0  0  0  0  0  0  0  0
    2.3760    2.5684    0.0010 C   0  0  0  0  0  0  0  0  0  0  0  0
    3.6308    2.0375    0.0017 C   0  0  0  0  0  0  0  0  0  0  0  0
    3.8666    0.5982    0.0013 C   0  0  0  0  0  0  0  0  0  0  0  0
    2.7537   -0.2425    0.0002 C   0  0  0  0  0  0  0  0  0  0  0  0
    1.4176    0.2826   -0.0000 C   0  0  0  0  0  0  0  0  0  0  0  0
    5.1057   -0.0512    0.0019 C   0  0  0  0  0  0  0  0  0  0  0  0
    5.1238   -1.4240    0.0002 C   0  0  0  0  0  0  0  0  0  0  0  0
    4.0616   -3.2963    0.0019 H   0  0  0  0  0  0  0  0  0  0  0  0
    1.0458   -2.5884   -0.8960 H   0  0  0  0  0  0  0  0  0  0  0  0
    1.0449   -2.5902    0.8904 H   0  0  0  0  0  0  0  0  0  0  0  0
   -1.6600   -2.2894   -0.0008 H   0  0  0  0  0  0  0  0  0  0  0  0
   -4.0778   -2.7871    0.0029 H   0  0  0  0  0  0  0  0  0  0  0  0
   -6.3667   -1.9810    0.0049 H   0  0  0  0  0  0  0  0  0  0  0  0
   -6.8788    0.4122    0.0005 H   0  0  0  0  0  0  0  0  0  0  0  0
   -5.1221    2.0851   -0.0029 H   0  0  0  0  0  0  0  0  0  0  0  0
   -2.7173    2.6227   -0.0028 H   0  0  0  0  0  0  0  0  0  0  0  0
   -0.3814    3.1790   -0.0016 H   0  0  0  0  0  0  0  0  0  0  0  0
    2.2561    3.6417    0.0009 H   0  0  0  0  0  0  0  0  0  0  0  0
    4.4796    2.7052    0.0022 H   0  0  0  0  0  0  0  0  0  0  0  0
    6.0260    0.5139    0.0029 H   0  0  0  0  0  0  0  0  0  0  0  0
    6.0840   -1.9185    0.0010 H   0  0  0  0  0  0  0  0  0  0  0  0
  1  2  2  0  0  0  0
  2  3  1  0  0  0  0
  3  4  1  0  0  0  0
  4  5  2  0  0  0  0
  5  6  1  0  0  0  0
  6  7  2  0  0  0  0
  7  8  1  0  0  0  0
  8  9  2  0  0  0  0
  9 10  1  0  0  0  0
 10 11  2  0  0  0  0
 11 12  1  0  0  0  0
  7 12  1  0  0  0  0
 12 13  2  0  0  0  0
 13 14  1  0  0  0  0
  5 14  1  0  0  0  0
 14 15  2  0  0  0  0
 15 16  1  0  0  0  0
 16 17  2  0  0  0  0
 17 18  1  0  0  0  0
 18 19  2  0  0  0  0
 19 20  1  0  0  0  0
  2 20  1  0  0  0  0
 20 21  2  0  0  0  0
  4 21  1  0  0  0  0
 16 21  1  0  0  0  0
 19 22  1  0  0  0  0
 22 23  2  0  0  0  0
  1 23  1  0  0  0  0
  1 24  1  0  0  0  0
  3 25  1  0  0  0  0
  3 26  1  0  0  0  0
  6 27  1  0  0  0  0
  8 28  1  0  0  0  0
  9 29  1  0  0  0  0
 10 30  1  0  0  0  0
 11 31  1  0  0  0  0
 13 32  1  0  0  0  0
 15 33  1  0  0  0  0
 17 34  1  0  0  0  0
 18 35  1  0  0  0  0
 22 36  1  0  0  0  0
 23 37  1  0  0  0  0
M  END
$$$$
