C23H14
APtclcactv01171906123D 0   0.00000     0.00000
 
 37 42  0  0  0  0  0  0  0  0999 V2000
   -3.2559   -2.0774    0.0035 C   0  0  0  0  0  0  0  0  0  0  0  0
   -4.6141   -2.1296   -0.0003 C   0  0  0  0  0  0  0  0  0  0  0  0
   -5.3861   -0.9696   -0.0058 C   0  0  0  0  0  0  0  0  0  0  0  0
   -4.8210    0.2647   -0.0068 C   0  0  0  0  0  0  0  0  0  0  0  0
   -3.4154    0.3964   -0.0025 C   0  0  0  0  0  0  0  0  0  0  0  0
   -2.8409    1.6819   -0.0022 C   0  0  0  0  0  0  0  0  0  0  0  0
   -1.4579    1.7888    0.0007 C   0  0  0  0  0  0  0  0  0  0  0  0
   -0.6799    3.0263    0.0014 C   0  0  0  0  0  0  0  0  0  0  0  0
    0.6799    3.0262    0.0023 C   0  0  0  0  0  0  0  0  0  0  0  0
    1.4580    1.7888    0.0019 C   0  0  0  0  0  0  0  0  0  0  0  0
    2.8409    1.6817    0.0001 C   0  0  0  0  0  0  0  0  0  0  0  0
    3.4154    0.3963   -0.0011 C   0  0  0  0  0  0  0  0  0  0  0  0
    4.8210    0.2647   -0.0041 C   0  0  0  0  0  0  0  0  0  0  0  0
    5.3860   -0.9696   -0.0056 C   0  0  0  0  0  0  0  0  0  0  0  0
    4.6139   -2.1296   -0.0035 C   0  0  0  0  0  0  0  0  0  0  0  0
    3.2559   -2.0772    0.0002 C   0  0  0  0  0  0  0  0  0  0  0  0
    2.6047   -0.8304    0.0011 C   0  0  0  0  0  0  0  0  0  0  0  0
    1.2137   -0.7316    0.0036 C   0  0  0  0  0  0  0  0  0  0  0  0
    0.7191    0.5427    0.0033 C   0  0  0  0  0  0  0  0  0  0  0  0
   -0.7189    0.5427    0.0028 C   0  0  0  0  0  0  0  0  0  0  0  0
   -1.2137   -0.7316    0.0041 C   0  0  0  0  0  0  0  0  0  0  0  0
   -2.6047   -0.8304    0.0016 C   0  0  0  0  0  0  0  0  0  0  0  0
    0.0000   -1.6363    0.0063 C   0  0  0  0  0  0  0  0  0  0  0  0
   -2.6786   -2.9901    0.0125 H   0  0  0  0  0  0  0  0  0  0  0  0
   -5.1056   -3.0912    0.0005 H   0  0  0  0  0  0  0  0  0  0  0  0
   -6.4627   -1.0548   -0.0098 H   0  0  0  0  0  0  0  0  0  0  0  0
   -5.4463    1.1453   -0.0111 H   0  0  0  0  0  0  0  0  0  0  0  0
   -3.4630    2.5648   -0.0046 H   0  0  0  0  0  0  0  0  0  0  0  0
   -1.2022    3.9716    0.0009 H   0  0  0  0  0  0  0  0  0  0  0  0
    1.2023    3.9715    0.0028 H   0  0  0  0  0  0  0  0  0  0  0  0
    3.4630    2.5646   -0.0008 H   0  0  0  0  0  0  0  0  0  0  0  0
    5.4463    1.1452   -0.0054 H   0  0  0  0  0  0  0  0  0  0  0  0
    6.4626   -1.0548   -0.0089 H   0  0  0  0  0  0  0  0  0  0  0  0
    5.1055   -3.0913   -0.0052 H   0  0  0  0  0  0  0  0  0  0  0  0
    2.6785   -2.9900    0.0020 H   0  0  0  0  0  0  0  0  0  0  0  0
   -0.0002   -2.2635   -0.8852 H   0  0  0  0  0  0  0  0  0  0  0  0
    0.0002   -2.2587    0.9011 H   0  0  0  0  0  0  0  0  0  0  0  0
  1  2  2  0  0  0  0
  2  3  1  0  0  0  0
  3  4  2  0  0  0  0
  4  5  1  0  0  0  0
  5  6  2  0  0  0  0
  6  7  1  0  0  0  0
  7  8  2  0  0  0  0
  8  9  1  0  0  0  0
  9 10  2  0  0  0  0
 10 11  1  0  0  0  0
 11 12  2  0  0  0  0
 12 13  1  0  0  0  0
 13 14  2  0  0  0  0
 14 15  1  0  0  0  0
 15 16  2  0  0  0  0
 16 17  1  0  0  0  0
 12 17  1  0  0  0  0
 17 18  2  0  0  0  0
 18 19  1  0  0  0  0
 10 19  1  0  0  0  0
 19 20  2  0  0  0  0
  7 20  1  0  0  0  0
 20 21  1  0  0  0  0
 21 22  2  0  0  0  0
  1 22  1  0  0  0  0
  5 22  1  0  0  0  0
 21 23  1  0  0  0  0
 18 23  1  0  0  0  0
  1 24  1  0  0  0  0
  2 25  1  0  0  0  0
  3 26  1  0  0  0  0
  4 27  1  0  0  0  0
  6 28  1  0  0  0  0
  8 29  1  0  0  0  0
  9 30  1  0  0  0  0
 11 31  1  0  0  0  0
 13 32  1  0  0  0  0
 14 33  1  0  0  0  0
 15 34  1  0  0  0  0
 16 35  1  0  0  0  0
 23 36  1  0  0  0  0
 23 37  1  0  0  0  0
M  END
$$$$
