C21H14
APtclcactv01171906123D 0   0.00000     0.00000
 
 35 39  0  0  0  0  0  0  0  0999 V2000
   -3.6268   -1.5552   -0.0002 C   0  0  0  0  0  0  0  0  0  0  0  0
   -4.9840   -1.4564   -0.0000 C   0  0  0  0  0  0  0  0  0  0  0  0
   -5.6128   -0.2125    0.0002 C   0  0  0  0  0  0  0  0  0  0  0  0
   -4.8877    0.9396   -0.0001 C   0  0  0  0  0  0  0  0  0  0  0  0
   -3.4842    0.8785   -0.0003 C   0  0  0  0  0  0  0  0  0  0  0  0
   -2.8439   -0.3869   -0.0001 C   0  0  0  0  0  0  0  0  0  0  0  0
   -1.4431   -0.4505    0.0003 C   0  0  0  0  0  0  0  0  0  0  0  0
   -0.4845   -1.6156    0.0000 C   0  0  0  0  0  0  0  0  0  0  0  0
    0.9016   -1.0159    0.0002 C   0  0  0  0  0  0  0  0  0  0  0  0
    2.1330   -1.5867   -0.0003 C   0  0  0  0  0  0  0  0  0  0  0  0
    3.2832   -0.7771   -0.0004 C   0  0  0  0  0  0  0  0  0  0  0  0
    3.1445    0.6339   -0.0001 C   0  0  0  0  0  0  0  0  0  0  0  0
    1.8624    1.2026    0.0003 C   0  0  0  0  0  0  0  0  0  0  0  0
    0.7476    0.3800    0.0004 C   0  0  0  0  0  0  0  0  0  0  0  0
   -0.7000    0.7135    0.0004 C   0  0  0  0  0  0  0  0  0  0  0  0
   -1.3501    1.9633   -0.0003 C   0  0  0  0  0  0  0  0  0  0  0  0
   -2.7042    2.0483   -0.0002 C   0  0  0  0  0  0  0  0  0  0  0  0
    4.2976    1.4393    0.0002 C   0  0  0  0  0  0  0  0  0  0  0  0
    5.5269    0.8558    0.0003 C   0  0  0  0  0  0  0  0  0  0  0  0
    5.6626   -0.5312   -0.0000 C   0  0  0  0  0  0  0  0  0  0  0  0
    4.5693   -1.3423   -0.0004 C   0  0  0  0  0  0  0  0  0  0  0  0
   -3.1533   -2.5259    0.0041 H   0  0  0  0  0  0  0  0  0  0  0  0
   -5.5829   -2.3551   -0.0004 H   0  0  0  0  0  0  0  0  0  0  0  0
   -6.6916   -0.1619    0.0004 H   0  0  0  0  0  0  0  0  0  0  0  0
   -5.3891    1.8962   -0.0007 H   0  0  0  0  0  0  0  0  0  0  0  0
   -0.6310   -2.2222    0.8937 H   0  0  0  0  0  0  0  0  0  0  0  0
   -0.6310   -2.2218   -0.8939 H   0  0  0  0  0  0  0  0  0  0  0  0
    2.2297   -2.6623   -0.0002 H   0  0  0  0  0  0  0  0  0  0  0  0
    1.7448    2.2762    0.0008 H   0  0  0  0  0  0  0  0  0  0  0  0
   -0.7610    2.8685   -0.0006 H   0  0  0  0  0  0  0  0  0  0  0  0
   -3.1837    3.0160   -0.0014 H   0  0  0  0  0  0  0  0  0  0  0  0
    4.2078    2.5156    0.0000 H   0  0  0  0  0  0  0  0  0  0  0  0
    6.4106    1.4768    0.0002 H   0  0  0  0  0  0  0  0  0  0  0  0
    6.6498   -0.9691   -0.0003 H   0  0  0  0  0  0  0  0  0  0  0  0
    4.6902   -2.4156   -0.0006 H   0  0  0  0  0  0  0  0  0  0  0  0
  1  2  2  0  0  0  0
  2  3  1  0  0  0  0
  3  4  2  0  0  0  0
  4  5  1  0  0  0  0
  5  6  1  0  0  0  0
  1  6  1  0  0  0  0
  6  7  2  0  0  0  0
  7  8  1  0  0  0  0
  8  9  1  0  0  0  0
  9 10  2  0  0  0  0
 10 11  1  0  0  0  0
 11 12  2  0  0  0  0
 12 13  1  0  0  0  0
 13 14  2  0  0  0  0
  9 14  1  0  0  0  0
 14 15  1  0  0  0  0
  7 15  1  0  0  0  0
 15 16  2  0  0  0  0
 16 17  1  0  0  0  0
  5 17  2  0  0  0  0
 12 18  1  0  0  0  0
 18 19  2  0  0  0  0
 19 20  1  0  0  0  0
 20 21  2  0  0  0  0
 11 21  1  0  0  0  0
  1 22  1  0  0  0  0
  2 23  1  0  0  0  0
  3 24  1  0  0  0  0
  4 25  1  0  0  0  0
  8 26  1  0  0  0  0
  8 27  1  0  0  0  0
 10 28  1  0  0  0  0
 13 29  1  0  0  0  0
 16 30  1  0  0  0  0
 17 31  1  0  0  0  0
 18 32  1  0  0  0  0
 19 33  1  0  0  0  0
 20 34  1  0  0  0  0
 21 35  1  0  0  0  0
M  END
$$$$
