C24H14
APtclcactv01171906133D 0   0.00000     0.00000
 
 38 43  0  0  0  0  0  0  0  0999 V2000
    4.4972    0.6856   -0.0120 C   0  0  0  0  0  0  0  0  0  0  0  0
    4.7315    2.0451   -0.0082 C   0  0  0  0  0  0  0  0  0  0  0  0
    3.6731    2.9399    0.0030 C   0  0  0  0  0  0  0  0  0  0  0  0
    2.3722    2.4832    0.0087 C   0  0  0  0  0  0  0  0  0  0  0  0
    3.1170   -2.4562   -0.0082 C   0  0  0  0  0  0  0  0  0  0  0  0
    2.2315   -3.5344   -0.0035 C   0  0  0  0  0  0  0  0  0  0  0  0
    0.8736   -3.3815    0.0039 C   0  0  0  0  0  0  0  0  0  0  0  0
   -1.0363   -1.7894    0.0097 C   0  0  0  0  0  0  0  0  0  0  0  0
   -0.9655    1.9554    0.0081 C   0  0  0  0  0  0  0  0  0  0  0  0
   -2.2787    2.2630    0.0031 C   0  0  0  0  0  0  0  0  0  0  0  0
   -3.8464   -1.1520    0.0039 C   0  0  0  0  0  0  0  0  0  0  0  0
   -5.1821   -0.8176   -0.0060 C   0  0  0  0  0  0  0  0  0  0  0  0
   -5.5784    0.5139   -0.0149 C   0  0  0  0  0  0  0  0  0  0  0  0
   -4.6549    1.5192   -0.0116 C   0  0  0  0  0  0  0  0  0  0  0  0
    0.8621    0.3341    0.0054 C   0  0  0  0  0  0  0  0  0  0  0  0
    2.1104    1.1150    0.0032 C   0  0  0  0  0  0  0  0  0  0  0  0
    3.1933    0.2004   -0.0054 C   0  0  0  0  0  0  0  0  0  0  0  0
    2.6280   -1.1618   -0.0044 C   0  0  0  0  0  0  0  0  0  0  0  0
    0.3321   -2.0813    0.0057 C   0  0  0  0  0  0  0  0  0  0  0  0
   -1.4465   -0.4570    0.0083 C   0  0  0  0  0  0  0  0  0  0  0  0
   -0.5151    0.6171    0.0078 C   0  0  0  0  0  0  0  0  0  0  0  0
   -3.2890    1.2098   -0.0014 C   0  0  0  0  0  0  0  0  0  0  0  0
   -2.8840   -0.1419    0.0048 C   0  0  0  0  0  0  0  0  0  0  0  0
    1.2337   -1.0074    0.0028 C   0  0  0  0  0  0  0  0  0  0  0  0
    5.3283   -0.0040   -0.0248 H   0  0  0  0  0  0  0  0  0  0  0  0
    5.7463    2.4146   -0.0136 H   0  0  0  0  0  0  0  0  0  0  0  0
    3.8687    4.0020    0.0077 H   0  0  0  0  0  0  0  0  0  0  0  0
    1.5540    3.1881    0.0178 H   0  0  0  0  0  0  0  0  0  0  0  0
    4.1826   -2.6317   -0.0144 H   0  0  0  0  0  0  0  0  0  0  0  0
    2.6376   -4.5352   -0.0062 H   0  0  0  0  0  0  0  0  0  0  0  0
    0.2250   -4.2450    0.0085 H   0  0  0  0  0  0  0  0  0  0  0  0
   -1.7654   -2.5861    0.0133 H   0  0  0  0  0  0  0  0  0  0  0  0
   -0.2388    2.7543    0.0120 H   0  0  0  0  0  0  0  0  0  0  0  0
   -2.5855    3.2985    0.0027 H   0  0  0  0  0  0  0  0  0  0  0  0
   -3.5457   -2.1893    0.0112 H   0  0  0  0  0  0  0  0  0  0  0  0
   -5.9288   -1.5978   -0.0071 H   0  0  0  0  0  0  0  0  0  0  0  0
   -6.6307    0.7568   -0.0242 H   0  0  0  0  0  0  0  0  0  0  0  0
   -4.9766    2.5501   -0.0185 H   0  0  0  0  0  0  0  0  0  0  0  0
 15 16  1  0  0  0  0
 16 17  2  0  0  0  0
  1 17  1  0  0  0  0
  1  2  2  0  0  0  0
  2  3  1  0  0  0  0
  3  4  2  0  0  0  0
  4 16  1  0  0  0  0
 15 24  2  0  0  0  0
 18 24  1  0  0  0  0
 17 18  1  0  0  0  0
  5 18  2  0  0  0  0
  5  6  1  0  0  0  0
  6  7  2  0  0  0  0
  7 19  1  0  0  0  0
 19 24  1  0  0  0  0
  8 19  2  0  0  0  0
  8 20  1  0  0  0  0
 20 21  2  0  0  0  0
 15 21  1  0  0  0  0
  9 21  1  0  0  0  0
  9 10  2  0  0  0  0
 10 22  1  0  0  0  0
 22 23  2  0  0  0  0
 20 23  1  0  0  0  0
 11 23  1  0  0  0  0
 11 12  2  0  0  0  0
 12 13  1  0  0  0  0
 13 14  2  0  0  0  0
 14 22  1  0  0  0  0
  1 25  1  0  0  0  0
  2 26  1  0  0  0  0
  3 27  1  0  0  0  0
  4 28  1  0  0  0  0
  5 29  1  0  0  0  0
  6 30  1  0  0  0  0
  7 31  1  0  0  0  0
  8 32  1  0  0  0  0
  9 33  1  0  0  0  0
 10 34  1  0  0  0  0
 11 35  1  0  0  0  0
 12 36  1  0  0  0  0
 13 37  1  0  0  0  0
 14 38  1  0  0  0  0
M  END
$$$$
