C25H16
APtclcactv01171906133D 0   0.00000     0.00000
 
 41 46  0  0  0  0  0  0  0  0999 V2000
   -2.0916   -2.8765    0.0000 C   0  0  0  0  0  0  0  0  0  0  0  0
   -3.3536   -3.3922    0.0001 C   0  0  0  0  0  0  0  0  0  0  0  0
   -4.4654   -2.5579   -0.0006 C   0  0  0  0  0  0  0  0  0  0  0  0
   -4.3186   -1.2000   -0.0009 C   0  0  0  0  0  0  0  0  0  0  0  0
   -3.0388   -0.6406   -0.0006 C   0  0  0  0  0  0  0  0  0  0  0  0
   -2.8481    0.8135   -0.0005 C   0  0  0  0  0  0  0  0  0  0  0  0
   -3.9345    1.6909   -0.0007 C   0  0  0  0  0  0  0  0  0  0  0  0
   -3.7136    3.0393   -0.0002 C   0  0  0  0  0  0  0  0  0  0  0  0
   -2.4210    3.5477    0.0007 C   0  0  0  0  0  0  0  0  0  0  0  0
   -1.3400    2.7128    0.0005 C   0  0  0  0  0  0  0  0  0  0  0  0
   -1.5353    1.3282    0.0004 C   0  0  0  0  0  0  0  0  0  0  0  0
   -0.3904    0.4051    0.0006 C   0  0  0  0  0  0  0  0  0  0  0  0
   -0.6018   -0.9397    0.0009 C   0  0  0  0  0  0  0  0  0  0  0  0
   -1.9061   -1.4839   -0.0003 C   0  0  0  0  0  0  0  0  0  0  0  0
    0.7508   -1.6164    0.0011 C   0  0  0  0  0  0  0  0  0  0  0  0
    1.7666   -0.5022    0.0009 C   0  0  0  0  0  0  0  0  0  0  0  0
    3.1674   -0.4942    0.0005 C   0  0  0  0  0  0  0  0  0  0  0  0
    3.8555    0.7463   -0.0001 C   0  0  0  0  0  0  0  0  0  0  0  0
    3.1203    1.9454   -0.0003 C   0  0  0  0  0  0  0  0  0  0  0  0
    1.7642    1.9140    0.0000 C   0  0  0  0  0  0  0  0  0  0  0  0
    1.0664    0.6892    0.0006 C   0  0  0  0  0  0  0  0  0  0  0  0
    5.2600    0.7536   -0.0009 C   0  0  0  0  0  0  0  0  0  0  0  0
    5.9409   -0.4253   -0.0011 C   0  0  0  0  0  0  0  0  0  0  0  0
    5.2655   -1.6444   -0.0005 C   0  0  0  0  0  0  0  0  0  0  0  0
    3.9054   -1.6913    0.0003 C   0  0  0  0  0  0  0  0  0  0  0  0
   -1.2369   -3.5366    0.0047 H   0  0  0  0  0  0  0  0  0  0  0  0
   -3.4914   -4.4633    0.0004 H   0  0  0  0  0  0  0  0  0  0  0  0
   -5.4560   -2.9881   -0.0012 H   0  0  0  0  0  0  0  0  0  0  0  0
   -5.1893   -0.5610   -0.0018 H   0  0  0  0  0  0  0  0  0  0  0  0
   -4.9435    1.3059   -0.0017 H   0  0  0  0  0  0  0  0  0  0  0  0
   -4.5539    3.7177   -0.0007 H   0  0  0  0  0  0  0  0  0  0  0  0
   -2.2687    4.6170    0.0011 H   0  0  0  0  0  0  0  0  0  0  0  0
   -0.3397    3.1199    0.0004 H   0  0  0  0  0  0  0  0  0  0  0  0
    0.8648   -2.2292    0.8953 H   0  0  0  0  0  0  0  0  0  0  0  0
    0.8648   -2.2296   -0.8929 H   0  0  0  0  0  0  0  0  0  0  0  0
    3.6370    2.8938   -0.0004 H   0  0  0  0  0  0  0  0  0  0  0  0
    1.2107    2.8414   -0.0001 H   0  0  0  0  0  0  0  0  0  0  0  0
    5.7975    1.6903   -0.0017 H   0  0  0  0  0  0  0  0  0  0  0  0
    7.0209   -0.4157   -0.0021 H   0  0  0  0  0  0  0  0  0  0  0  0
    5.8297   -2.5653   -0.0007 H   0  0  0  0  0  0  0  0  0  0  0  0
    3.3953   -2.6433    0.0014 H   0  0  0  0  0  0  0  0  0  0  0  0
  1  2  2  0  0  0  0
  2  3  1  0  0  0  0
  3  4  2  0  0  0  0
  4  5  1  0  0  0  0
  5  6  1  0  0  0  0
  6  7  2  0  0  0  0
  7  8  1  0  0  0  0
  8  9  2  0  0  0  0
  9 10  1  0  0  0  0
 10 11  2  0  0  0  0
  6 11  1  0  0  0  0
 11 12  1  0  0  0  0
 12 13  2  0  0  0  0
 13 14  1  0  0  0  0
  1 14  1  0  0  0  0
  5 14  2  0  0  0  0
 13 15  1  0  0  0  0
 15 16  1  0  0  0  0
 16 17  1  0  0  0  0
 17 18  2  0  0  0  0
 18 19  1  0  0  0  0
 19 20  2  0  0  0  0
 20 21  1  0  0  0  0
 16 21  2  0  0  0  0
 12 21  1  0  0  0  0
 18 22  1  0  0  0  0
 22 23  2  0  0  0  0
 23 24  1  0  0  0  0
 24 25  2  0  0  0  0
 17 25  1  0  0  0  0
  1 26  1  0  0  0  0
  2 27  1  0  0  0  0
  3 28  1  0  0  0  0
  4 29  1  0  0  0  0
  7 30  1  0  0  0  0
  8 31  1  0  0  0  0
  9 32  1  0  0  0  0
 10 33  1  0  0  0  0
 15 34  1  0  0  0  0
 15 35  1  0  0  0  0
 19 36  1  0  0  0  0
 20 37  1  0  0  0  0
 22 38  1  0  0  0  0
 23 39  1  0  0  0  0
 24 40  1  0  0  0  0
 25 41  1  0  0  0  0
M  END
$$$$
