C13H10
APtclcactv01171906133D 0   0.00000     0.00000
 
 23 25  0  0  0  0  0  0  0  0999 V2000
   -1.8703   -1.6094    0.0003 C   0  0  0  0  0  0  0  0  0  0  0  0
   -3.2382   -0.9676   -0.0005 C   0  0  0  0  0  0  0  0  0  0  0  0
   -3.0745    0.3441   -0.0006 C   0  0  0  0  0  0  0  0  0  0  0  0
   -1.6427    0.7007    0.0000 C   0  0  0  0  0  0  0  0  0  0  0  0
   -0.9950    1.9529    0.0001 C   0  0  0  0  0  0  0  0  0  0  0  0
    0.3587    2.0393    0.0003 C   0  0  0  0  0  0  0  0  0  0  0  0
    1.1433    0.8719    0.0003 C   0  0  0  0  0  0  0  0  0  0  0  0
    0.5073   -0.3966    0.0007 C   0  0  0  0  0  0  0  0  0  0  0  0
   -0.8900   -0.4621    0.0005 C   0  0  0  0  0  0  0  0  0  0  0  0
    1.2954   -1.5616    0.0003 C   0  0  0  0  0  0  0  0  0  0  0  0
    2.6522   -1.4577   -0.0005 C   0  0  0  0  0  0  0  0  0  0  0  0
    3.2760   -0.2114   -0.0004 C   0  0  0  0  0  0  0  0  0  0  0  0
    2.5462    0.9378   -0.0004 C   0  0  0  0  0  0  0  0  0  0  0  0
   -1.7393   -2.2180    0.8950 H   0  0  0  0  0  0  0  0  0  0  0  0
   -1.7385   -2.2183   -0.8941 H   0  0  0  0  0  0  0  0  0  0  0  0
   -4.1840   -1.4891   -0.0008 H   0  0  0  0  0  0  0  0  0  0  0  0
   -3.8826    1.0607   -0.0014 H   0  0  0  0  0  0  0  0  0  0  0  0
   -1.5856    2.8571   -0.0003 H   0  0  0  0  0  0  0  0  0  0  0  0
    0.8359    3.0081    0.0000 H   0  0  0  0  0  0  0  0  0  0  0  0
    0.8258   -2.5342    0.0009 H   0  0  0  0  0  0  0  0  0  0  0  0
    3.2545   -2.3541   -0.0008 H   0  0  0  0  0  0  0  0  0  0  0  0
    4.3546   -0.1565   -0.0006 H   0  0  0  0  0  0  0  0  0  0  0  0
    3.0440    1.8963   -0.0003 H   0  0  0  0  0  0  0  0  0  0  0  0
  1  2  1  0  0  0  0
  2  3  2  0  0  0  0
  3  4  1  0  0  0  0
  4  5  1  0  0  0  0
  5  6  2  0  0  0  0
  6  7  1  0  0  0  0
  7  8  2  0  0  0  0
  8  9  1  0  0  0  0
  1  9  1  0  0  0  0
  4  9  2  0  0  0  0
  8 10  1  0  0  0  0
 10 11  2  0  0  0  0
 11 12  1  0  0  0  0
 12 13  2  0  0  0  0
  7 13  1  0  0  0  0
  1 14  1  0  0  0  0
  1 15  1  0  0  0  0
  2 16  1  0  0  0  0
  3 17  1  0  0  0  0
  5 18  1  0  0  0  0
  6 19  1  0  0  0  0
 10 20  1  0  0  0  0
 11 21  1  0  0  0  0
 12 22  1  0  0  0  0
 13 23  1  0  0  0  0
M  END
$$$$
