C13H10
APtclcactv01171906133D 0   0.00000     0.00000
 
 23 25  0  0  0  0  0  0  0  0999 V2000
   -2.8765    1.1598    0.0002 C   0  0  0  0  0  0  0  0  0  0  0  0
   -3.6894   -0.1130    0.0005 C   0  0  0  0  0  0  0  0  0  0  0  0
   -2.8596   -1.1410    0.0002 C   0  0  0  0  0  0  0  0  0  0  0  0
   -1.4546   -0.6907   -0.0003 C   0  0  0  0  0  0  0  0  0  0  0  0
   -0.2641   -1.4022   -0.0004 C   0  0  0  0  0  0  0  0  0  0  0  0
    0.9562   -0.7116   -0.0004 C   0  0  0  0  0  0  0  0  0  0  0  0
    0.9589    0.7066   -0.0004 C   0  0  0  0  0  0  0  0  0  0  0  0
   -0.2637    1.4028   -0.0003 C   0  0  0  0  0  0  0  0  0  0  0  0
   -1.4319    0.7172   -0.0003 C   0  0  0  0  0  0  0  0  0  0  0  0
    2.1846    1.3929    0.0001 C   0  0  0  0  0  0  0  0  0  0  0  0
    3.3508    0.6907    0.0005 C   0  0  0  0  0  0  0  0  0  0  0  0
    3.3492   -0.7030    0.0004 C   0  0  0  0  0  0  0  0  0  0  0  0
    2.1819   -1.4023   -0.0000 C   0  0  0  0  0  0  0  0  0  0  0  0
   -3.0920    1.7445   -0.8941 H   0  0  0  0  0  0  0  0  0  0  0  0
   -3.0913    1.7445    0.8947 H   0  0  0  0  0  0  0  0  0  0  0  0
   -4.7677   -0.1728    0.0012 H   0  0  0  0  0  0  0  0  0  0  0  0
   -3.1692   -2.1756    0.0006 H   0  0  0  0  0  0  0  0  0  0  0  0
   -0.2769   -2.4821   -0.0001 H   0  0  0  0  0  0  0  0  0  0  0  0
   -0.2708    2.4827   -0.0003 H   0  0  0  0  0  0  0  0  0  0  0  0
    2.2016    2.4728   -0.0002 H   0  0  0  0  0  0  0  0  0  0  0  0
    4.2914    1.2215    0.0005 H   0  0  0  0  0  0  0  0  0  0  0  0
    4.2885   -1.2360    0.0004 H   0  0  0  0  0  0  0  0  0  0  0  0
    2.1962   -2.4822    0.0003 H   0  0  0  0  0  0  0  0  0  0  0  0
  1  2  1  0  0  0  0
  2  3  2  0  0  0  0
  3  4  1  0  0  0  0
  4  5  1  0  0  0  0
  5  6  2  0  0  0  0
  6  7  1  0  0  0  0
  7  8  2  0  0  0  0
  8  9  1  0  0  0  0
  1  9  1  0  0  0  0
  4  9  2  0  0  0  0
  7 10  1  0  0  0  0
 10 11  2  0  0  0  0
 11 12  1  0  0  0  0
 12 13  2  0  0  0  0
  6 13  1  0  0  0  0
  1 14  1  0  0  0  0
  1 15  1  0  0  0  0
  2 16  1  0  0  0  0
  3 17  1  0  0  0  0
  5 18  1  0  0  0  0
  8 19  1  0  0  0  0
 10 20  1  0  0  0  0
 11 21  1  0  0  0  0
 12 22  1  0  0  0  0
 13 23  1  0  0  0  0
M  END
$$$$
