C13H10
APtclcactv01171906133D 0   0.00000     0.00000
 
 23 25  0  0  0  0  0  0  0  0999 V2000
    0.3326    2.3791   -0.0000 C   0  0  0  0  0  0  0  0  0  0  0  0
    1.9654   -1.4731   -0.0006 C   0  0  0  0  0  0  0  0  0  0  0  0
    2.2682    0.9613    0.0004 C   0  0  0  0  0  0  0  0  0  0  0  0
   -0.2525   -2.3911    0.0009 C   0  0  0  0  0  0  0  0  0  0  0  0
    1.7165    2.2066    0.0007 C   0  0  0  0  0  0  0  0  0  0  0  0
    1.1287   -2.5484   -0.0001 C   0  0  0  0  0  0  0  0  0  0  0  0
   -1.9986    1.4726   -0.0004 C   0  0  0  0  0  0  0  0  0  0  0  0
   -0.4985    1.3047   -0.0007 C   0  0  0  0  0  0  0  0  0  0  0  0
   -0.8193   -1.1258    0.0004 C   0  0  0  0  0  0  0  0  0  0  0  0
   -2.2829   -0.9695    0.0002 C   0  0  0  0  0  0  0  0  0  0  0  0
   -2.8547    0.2268    0.0000 C   0  0  0  0  0  0  0  0  0  0  0  0
    1.4358   -0.1708   -0.0007 C   0  0  0  0  0  0  0  0  0  0  0  0
    0.0319    0.0063   -0.0005 C   0  0  0  0  0  0  0  0  0  0  0  0
   -2.2665    2.0593    0.8782 H   0  0  0  0  0  0  0  0  0  0  0  0
   -2.2668    2.0589   -0.8792 H   0  0  0  0  0  0  0  0  0  0  0  0
   -0.0822    3.3762    0.0044 H   0  0  0  0  0  0  0  0  0  0  0  0
    3.0352   -1.6211   -0.0004 H   0  0  0  0  0  0  0  0  0  0  0  0
    3.3419    0.8444    0.0002 H   0  0  0  0  0  0  0  0  0  0  0  0
   -0.8901   -3.2628    0.0012 H   0  0  0  0  0  0  0  0  0  0  0  0
   -2.9065   -1.8512    0.0001 H   0  0  0  0  0  0  0  0  0  0  0  0
   -3.9314    0.3111    0.0006 H   0  0  0  0  0  0  0  0  0  0  0  0
    2.3605    3.0736    0.0011 H   0  0  0  0  0  0  0  0  0  0  0  0
    1.5473   -3.5440   -0.0000 H   0  0  0  0  0  0  0  0  0  0  0  0
  8 13  2  0  0  0  0
 12 13  1  0  0  0  0
  9 13  1  0  0  0  0
  7  8  1  0  0  0  0
  1  8  1  0  0  0  0
  2 12  1  0  0  0  0
  3 12  2  0  0  0  0
  4  9  2  0  0  0  0
  9 10  1  0  0  0  0
  7 11  1  0  0  0  0
  1  5  2  0  0  0  0
  2  6  2  0  0  0  0
  3  5  1  0  0  0  0
  4  6  1  0  0  0  0
 10 11  2  0  0  0  0
  7 14  1  0  0  0  0
  7 15  1  0  0  0  0
  1 16  1  0  0  0  0
  2 17  1  0  0  0  0
  3 18  1  0  0  0  0
  4 19  1  0  0  0  0
 10 20  1  0  0  0  0
 11 21  1  0  0  0  0
  5 22  1  0  0  0  0
  6 23  1  0  0  0  0
M  END
$$$$
