C19H12
APtclcactv01171906133D 0   0.00000     0.00000
 
 31 35  0  0  0  0  0  0  0  0999 V2000
   -3.6705    1.2370   -0.0023 C   0  0  0  0  0  0  0  0  0  0  0  0
   -4.3614   -0.1083   -0.0009 C   0  0  0  0  0  0  0  0  0  0  0  0
   -3.6771   -1.2488    0.0007 C   0  0  0  0  0  0  0  0  0  0  0  0
   -2.2092   -1.2493    0.0014 C   0  0  0  0  0  0  0  0  0  0  0  0
   -1.5044    0.0304    0.0009 C   0  0  0  0  0  0  0  0  0  0  0  0
   -2.1638    1.2676   -0.0007 C   0  0  0  0  0  0  0  0  0  0  0  0
   -1.4178    2.4052   -0.0015 C   0  0  0  0  0  0  0  0  0  0  0  0
   -0.0186    2.3806   -0.0010 C   0  0  0  0  0  0  0  0  0  0  0  0
    0.6644    1.1747   -0.0002 C   0  0  0  0  0  0  0  0  0  0  0  0
    2.0631    0.7066    0.0014 C   0  0  0  0  0  0  0  0  0  0  0  0
    3.2819    1.3775    0.0050 C   0  0  0  0  0  0  0  0  0  0  0  0
    4.4659    0.6695    0.0025 C   0  0  0  0  0  0  0  0  0  0  0  0
    4.4546   -0.7156   -0.0032 C   0  0  0  0  0  0  0  0  0  0  0  0
    3.2591   -1.4037   -0.0057 C   0  0  0  0  0  0  0  0  0  0  0  0
    2.0515   -0.7121   -0.0021 C   0  0  0  0  0  0  0  0  0  0  0  0
    0.6450   -1.1586    0.0004 C   0  0  0  0  0  0  0  0  0  0  0  0
   -0.0447   -2.3620    0.0023 C   0  0  0  0  0  0  0  0  0  0  0  0
   -1.4375   -2.4034    0.0019 C   0  0  0  0  0  0  0  0  0  0  0  0
   -0.1179    0.0149    0.0021 C   0  0  0  0  0  0  0  0  0  0  0  0
   -4.0114    1.7830   -0.8819 H   0  0  0  0  0  0  0  0  0  0  0  0
   -4.0133    1.7858    0.8748 H   0  0  0  0  0  0  0  0  0  0  0  0
   -5.4408   -0.1439   -0.0008 H   0  0  0  0  0  0  0  0  0  0  0  0
   -4.2094   -2.1885    0.0019 H   0  0  0  0  0  0  0  0  0  0  0  0
   -1.9227    3.3600   -0.0031 H   0  0  0  0  0  0  0  0  0  0  0  0
    0.5334    3.3088   -0.0015 H   0  0  0  0  0  0  0  0  0  0  0  0
    3.3012    2.4573    0.0093 H   0  0  0  0  0  0  0  0  0  0  0  0
    5.4075    1.1984    0.0047 H   0  0  0  0  0  0  0  0  0  0  0  0
    5.3874   -1.2601   -0.0062 H   0  0  0  0  0  0  0  0  0  0  0  0
    3.2603   -2.4837   -0.0105 H   0  0  0  0  0  0  0  0  0  0  0  0
    0.5106   -3.2884    0.0017 H   0  0  0  0  0  0  0  0  0  0  0  0
   -1.9323   -3.3634    0.0033 H   0  0  0  0  0  0  0  0  0  0  0  0
  1  2  1  0  0  0  0
  2  3  2  0  0  0  0
  3  4  1  0  0  0  0
  4  5  1  0  0  0  0
  5  6  2  0  0  0  0
  1  6  1  0  0  0  0
  6  7  1  0  0  0  0
  7  8  2  0  0  0  0
  8  9  1  0  0  0  0
  9 10  1  0  0  0  0
 10 11  2  0  0  0  0
 11 12  1  0  0  0  0
 12 13  2  0  0  0  0
 13 14  1  0  0  0  0
 14 15  2  0  0  0  0
 10 15  1  0  0  0  0
 15 16  1  0  0  0  0
 16 17  2  0  0  0  0
 17 18  1  0  0  0  0
  4 18  2  0  0  0  0
 16 19  1  0  0  0  0
  9 19  2  0  0  0  0
  5 19  1  0  0  0  0
  1 20  1  0  0  0  0
  1 21  1  0  0  0  0
  2 22  1  0  0  0  0
  3 23  1  0  0  0  0
  7 24  1  0  0  0  0
  8 25  1  0  0  0  0
 11 26  1  0  0  0  0
 12 27  1  0  0  0  0
 13 28  1  0  0  0  0
 14 29  1  0  0  0  0
 17 30  1  0  0  0  0
 18 31  1  0  0  0  0
M  END
$$$$
