C19H12
APtclcactv01171906133D 0   0.00000     0.00000
 
 31 35  0  0  0  0  0  0  0  0999 V2000
    0.7020   -2.8587   -0.0001 C   0  0  0  0  0  0  0  0  0  0  0  0
   -0.6115   -3.6041   -0.0000 C   0  0  0  0  0  0  0  0  0  0  0  0
   -1.7511   -2.9223    0.0003 C   0  0  0  0  0  0  0  0  0  0  0  0
   -1.7782   -1.4540    0.0001 C   0  0  0  0  0  0  0  0  0  0  0  0
   -3.0181   -0.7955   -0.0000 C   0  0  0  0  0  0  0  0  0  0  0  0
   -3.0992    0.5608   -0.0005 C   0  0  0  0  0  0  0  0  0  0  0  0
   -1.9290    1.3470   -0.0003 C   0  0  0  0  0  0  0  0  0  0  0  0
   -2.0022    2.7491   -0.0001 C   0  0  0  0  0  0  0  0  0  0  0  0
   -0.8508    3.5030    0.0000 C   0  0  0  0  0  0  0  0  0  0  0  0
    0.3962    2.8967    0.0003 C   0  0  0  0  0  0  0  0  0  0  0  0
    0.5028    1.5103    0.0006 C   0  0  0  0  0  0  0  0  0  0  0  0
    1.8109    0.8438    0.0004 C   0  0  0  0  0  0  0  0  0  0  0  0
    1.8487   -0.6299    0.0005 C   0  0  0  0  0  0  0  0  0  0  0  0
    0.6654   -1.3473    0.0002 C   0  0  0  0  0  0  0  0  0  0  0  0
   -0.5822   -0.6986   -0.0003 C   0  0  0  0  0  0  0  0  0  0  0  0
   -0.6641    0.7155    0.0002 C   0  0  0  0  0  0  0  0  0  0  0  0
    3.2179   -0.9880   -0.0002 C   0  0  0  0  0  0  0  0  0  0  0  0
    3.9590    0.1529   -0.0006 C   0  0  0  0  0  0  0  0  0  0  0  0
    3.1227    1.2728   -0.0003 C   0  0  0  0  0  0  0  0  0  0  0  0
    1.2635   -3.1767    0.8784 H   0  0  0  0  0  0  0  0  0  0  0  0
    1.2632   -3.1763   -0.8789 H   0  0  0  0  0  0  0  0  0  0  0  0
   -0.6240   -4.6841   -0.0006 H   0  0  0  0  0  0  0  0  0  0  0  0
   -2.6857   -3.4636    0.0003 H   0  0  0  0  0  0  0  0  0  0  0  0
   -3.9267   -1.3793   -0.0002 H   0  0  0  0  0  0  0  0  0  0  0  0
   -4.0670    1.0400   -0.0014 H   0  0  0  0  0  0  0  0  0  0  0  0
   -2.9653    3.2377   -0.0003 H   0  0  0  0  0  0  0  0  0  0  0  0
   -0.9194    4.5808   -0.0005 H   0  0  0  0  0  0  0  0  0  0  0  0
    1.2891    3.5043   -0.0000 H   0  0  0  0  0  0  0  0  0  0  0  0
    3.6079   -1.9952    0.0003 H   0  0  0  0  0  0  0  0  0  0  0  0
    5.0385    0.1883   -0.0012 H   0  0  0  0  0  0  0  0  0  0  0  0
    3.4487    2.3024   -0.0002 H   0  0  0  0  0  0  0  0  0  0  0  0
  1  2  1  0  0  0  0
  2  3  2  0  0  0  0
  3  4  1  0  0  0  0
  4  5  1  0  0  0  0
  5  6  2  0  0  0  0
  6  7  1  0  0  0  0
  7  8  1  0  0  0  0
  8  9  2  0  0  0  0
  9 10  1  0  0  0  0
 10 11  2  0  0  0  0
 11 12  1  0  0  0  0
 12 13  1  0  0  0  0
 13 14  2  0  0  0  0
  1 14  1  0  0  0  0
 14 15  1  0  0  0  0
  4 15  2  0  0  0  0
 15 16  1  0  0  0  0
 11 16  1  0  0  0  0
  7 16  2  0  0  0  0
 13 17  1  0  0  0  0
 17 18  2  0  0  0  0
 18 19  1  0  0  0  0
 12 19  2  0  0  0  0
  1 20  1  0  0  0  0
  1 21  1  0  0  0  0
  2 22  1  0  0  0  0
  3 23  1  0  0  0  0
  5 24  1  0  0  0  0
  6 25  1  0  0  0  0
  8 26  1  0  0  0  0
  9 27  1  0  0  0  0
 10 28  1  0  0  0  0
 17 29  1  0  0  0  0
 18 30  1  0  0  0  0
 19 31  1  0  0  0  0
M  END
$$$$
