C17H12
APtclcactv01171906133D 0   0.00000     0.00000
 
 29 32  0  0  0  0  0  0  0  0999 V2000
    1.2167   -2.8179   -0.0003 C   0  0  0  0  0  0  0  0  0  0  0  0
   -0.0307   -3.6700   -0.0010 C   0  0  0  0  0  0  0  0  0  0  0  0
   -1.0726   -2.8539   -0.0008 C   0  0  0  0  0  0  0  0  0  0  0  0
   -0.6404   -1.4449    0.0000 C   0  0  0  0  0  0  0  0  0  0  0  0
    0.7237   -1.3880    0.0003 C   0  0  0  0  0  0  0  0  0  0  0  0
    1.4154   -0.1589    0.0007 C   0  0  0  0  0  0  0  0  0  0  0  0
    2.8199   -0.1337    0.0009 C   0  0  0  0  0  0  0  0  0  0  0  0
    3.4772    1.0610    0.0002 C   0  0  0  0  0  0  0  0  0  0  0  0
    2.7763    2.2609   -0.0003 C   0  0  0  0  0  0  0  0  0  0  0  0
    1.4102    2.2709   -0.0006 C   0  0  0  0  0  0  0  0  0  0  0  0
    0.7074    1.0644   -0.0003 C   0  0  0  0  0  0  0  0  0  0  0  0
   -0.7591    1.0433   -0.0000 C   0  0  0  0  0  0  0  0  0  0  0  0
   -1.5039    2.2251   -0.0007 C   0  0  0  0  0  0  0  0  0  0  0  0
   -2.8685    2.1636   -0.0008 C   0  0  0  0  0  0  0  0  0  0  0  0
   -3.5248    0.9389    0.0002 C   0  0  0  0  0  0  0  0  0  0  0  0
   -2.8218   -0.2318    0.0014 C   0  0  0  0  0  0  0  0  0  0  0  0
   -1.4239   -0.1999    0.0013 C   0  0  0  0  0  0  0  0  0  0  0  0
    1.8077   -3.0141    0.8943 H   0  0  0  0  0  0  0  0  0  0  0  0
    1.8080   -3.0132   -0.8949 H   0  0  0  0  0  0  0  0  0  0  0  0
   -0.0659   -4.7495   -0.0019 H   0  0  0  0  0  0  0  0  0  0  0  0
   -2.1029   -3.1776   -0.0012 H   0  0  0  0  0  0  0  0  0  0  0  0
    3.3778   -1.0584    0.0021 H   0  0  0  0  0  0  0  0  0  0  0  0
    4.5571    1.0749    0.0004 H   0  0  0  0  0  0  0  0  0  0  0  0
    3.3173    3.1956   -0.0002 H   0  0  0  0  0  0  0  0  0  0  0  0
    0.8754    3.2092   -0.0013 H   0  0  0  0  0  0  0  0  0  0  0  0
   -1.0035    3.1821   -0.0009 H   0  0  0  0  0  0  0  0  0  0  0  0
   -3.4440    3.0775   -0.0014 H   0  0  0  0  0  0  0  0  0  0  0  0
   -4.6045    0.9126    0.0005 H   0  0  0  0  0  0  0  0  0  0  0  0
   -3.3430   -1.1777    0.0027 H   0  0  0  0  0  0  0  0  0  0  0  0
  1  2  1  0  0  0  0
  2  3  2  0  0  0  0
  3  4  1  0  0  0  0
  4  5  2  0  0  0  0
  1  5  1  0  0  0  0
  5  6  1  0  0  0  0
  6  7  2  0  0  0  0
  7  8  1  0  0  0  0
  8  9  2  0  0  0  0
  9 10  1  0  0  0  0
 10 11  2  0  0  0  0
  6 11  1  0  0  0  0
 11 12  1  0  0  0  0
 12 13  1  0  0  0  0
 13 14  2  0  0  0  0
 14 15  1  0  0  0  0
 15 16  2  0  0  0  0
 16 17  1  0  0  0  0
  4 17  1  0  0  0  0
 12 17  2  0  0  0  0
  1 18  1  0  0  0  0
  1 19  1  0  0  0  0
  2 20  1  0  0  0  0
  3 21  1  0  0  0  0
  7 22  1  0  0  0  0
  8 23  1  0  0  0  0
  9 24  1  0  0  0  0
 10 25  1  0  0  0  0
 13 26  1  0  0  0  0
 14 27  1  0  0  0  0
 15 28  1  0  0  0  0
 16 29  1  0  0  0  0
M  END
$$$$
