C22H12
APtclcactv01171906133D 0   0.00000     0.00000
 
 34 39  0  0  0  0  0  0  0  0999 V2000
   -0.0770    1.9919   -0.0014 C   0  0  0  0  0  0  0  0  0  0  0  0
    1.0690   -2.6374   -0.0007 C   0  0  0  0  0  0  0  0  0  0  0  0
   -0.2633   -3.0180    0.0056 C   0  0  0  0  0  0  0  0  0  0  0  0
   -2.6806   -2.3944    0.0080 C   0  0  0  0  0  0  0  0  0  0  0  0
    3.3569    1.8380    0.0036 C   0  0  0  0  0  0  0  0  0  0  0  0
    4.0207   -0.8610    0.0002 C   0  0  0  0  0  0  0  0  0  0  0  0
   -2.4448    2.6603    0.0006 C   0  0  0  0  0  0  0  0  0  0  0  0
   -3.6136   -1.4073    0.0082 C   0  0  0  0  0  0  0  0  0  0  0  0
   -4.2038    0.9948   -0.0023 C   0  0  0  0  0  0  0  0  0  0  0  0
    4.6788    1.4455    0.0057 C   0  0  0  0  0  0  0  0  0  0  0  0
    5.0087    0.0998    0.0040 C   0  0  0  0  0  0  0  0  0  0  0  0
   -3.7814    2.3114   -0.0003 C   0  0  0  0  0  0  0  0  0  0  0  0
    0.8693    1.0053   -0.0028 C   0  0  0  0  0  0  0  0  0  0  0  0
    1.4358   -1.2891   -0.0084 C   0  0  0  0  0  0  0  0  0  0  0  0
    2.3406    0.8871   -0.0002 C   0  0  0  0  0  0  0  0  0  0  0  0
    2.6765   -0.4912   -0.0028 C   0  0  0  0  0  0  0  0  0  0  0  0
   -1.3035   -2.0818   -0.0100 C   0  0  0  0  0  0  0  0  0  0  0  0
   -1.4587    1.6641   -0.0008 C   0  0  0  0  0  0  0  0  0  0  0  0
   -3.2604   -0.0366    0.0036 C   0  0  0  0  0  0  0  0  0  0  0  0
   -0.9436   -0.7146   -0.0025 C   0  0  0  0  0  0  0  0  0  0  0  0
   -1.8939    0.3176   -0.0021 C   0  0  0  0  0  0  0  0  0  0  0  0
    0.3953   -0.3678   -0.0089 C   0  0  0  0  0  0  0  0  0  0  0  0
    0.2284    3.0278    0.0037 H   0  0  0  0  0  0  0  0  0  0  0  0
    1.8375   -3.3962    0.0007 H   0  0  0  0  0  0  0  0  0  0  0  0
   -0.5066   -4.0702    0.0010 H   0  0  0  0  0  0  0  0  0  0  0  0
   -2.9950   -3.4277    0.0023 H   0  0  0  0  0  0  0  0  0  0  0  0
    3.1088    2.8892    0.0052 H   0  0  0  0  0  0  0  0  0  0  0  0
    4.2894   -1.9070   -0.0008 H   0  0  0  0  0  0  0  0  0  0  0  0
   -2.1593    3.7019    0.0021 H   0  0  0  0  0  0  0  0  0  0  0  0
   -4.6593   -1.6770    0.0117 H   0  0  0  0  0  0  0  0  0  0  0  0
   -5.2588    0.7641    0.0017 H   0  0  0  0  0  0  0  0  0  0  0  0
    5.4606    2.1906    0.0085 H   0  0  0  0  0  0  0  0  0  0  0  0
    6.0468   -0.1981    0.0059 H   0  0  0  0  0  0  0  0  0  0  0  0
   -4.5237    3.0959    0.0009 H   0  0  0  0  0  0  0  0  0  0  0  0
 20 22  1  0  0  0  0
 13 22  1  0  0  0  0
 14 22  2  0  0  0  0
 20 21  1  0  0  0  0
 17 20  2  0  0  0  0
 13 15  1  0  0  0  0
  1 13  2  0  0  0  0
 14 16  1  0  0  0  0
  2 14  1  0  0  0  0
 18 21  1  0  0  0  0
 19 21  2  0  0  0  0
  3 17  1  0  0  0  0
  4 17  1  0  0  0  0
  5 15  1  0  0  0  0
  1 23  1  0  0  0  0
  6 16  1  0  0  0  0
  2 24  1  0  0  0  0
  7 18  2  0  0  0  0
  8 19  1  0  0  0  0
  9 19  1  0  0  0  0
  3 25  1  0  0  0  0
  4 26  1  0  0  0  0
  5 10  2  0  0  0  0
  5 27  1  0  0  0  0
  6 11  2  0  0  0  0
  6 28  1  0  0  0  0
  7 12  1  0  0  0  0
  7 29  1  0  0  0  0
  8 30  1  0  0  0  0
  9 31  1  0  0  0  0
 10 32  1  0  0  0  0
 11 33  1  0  0  0  0
 12 34  1  0  0  0  0
 15 16  2  0  0  0  0
  1 18  1  0  0  0  0
  2  3  2  0  0  0  0
  4  8  2  0  0  0  0
  9 12  2  0  0  0  0
 10 11  1  0  0  0  0
M  END
$$$$
