C17H12
APtclcactv01171906133D 0   0.00000     0.00000
 
 29 32  0  0  0  0  0  0  0  0999 V2000
    3.6908   -0.4453    0.0000 C   0  0  0  0  0  0  0  0  0  0  0  0
    1.8167    1.5991   -0.0001 C   0  0  0  0  0  0  0  0  0  0  0  0
    3.1637    1.8941    0.0007 C   0  0  0  0  0  0  0  0  0  0  0  0
    4.1011    0.8763    0.0003 C   0  0  0  0  0  0  0  0  0  0  0  0
   -1.0081   -2.5018    0.0008 C   0  0  0  0  0  0  0  0  0  0  0  0
   -2.2521   -1.9484    0.0003 C   0  0  0  0  0  0  0  0  0  0  0  0
   -1.3945    1.6667    0.0000 C   0  0  0  0  0  0  0  0  0  0  0  0
   -3.6710    0.0471   -0.0002 C   0  0  0  0  0  0  0  0  0  0  0  0
   -3.7776    1.4041   -0.0003 C   0  0  0  0  0  0  0  0  0  0  0  0
   -2.6426    2.2122    0.0005 C   0  0  0  0  0  0  0  0  0  0  0  0
    1.6020   -2.0622   -0.0002 C   0  0  0  0  0  0  0  0  0  0  0  0
    0.1337   -1.7071   -0.0002 C   0  0  0  0  0  0  0  0  0  0  0  0
    2.3467   -0.7501   -0.0003 C   0  0  0  0  0  0  0  0  0  0  0  0
    1.3945    0.2670   -0.0004 C   0  0  0  0  0  0  0  0  0  0  0  0
    0.0382   -0.3283   -0.0003 C   0  0  0  0  0  0  0  0  0  0  0  0
   -1.2464    0.2722   -0.0003 C   0  0  0  0  0  0  0  0  0  0  0  0
   -2.3983   -0.5503   -0.0002 C   0  0  0  0  0  0  0  0  0  0  0  0
    1.8499   -2.6345    0.8937 H   0  0  0  0  0  0  0  0  0  0  0  0
    1.8499   -2.6347   -0.8940 H   0  0  0  0  0  0  0  0  0  0  0  0
    4.4241   -1.2382   -0.0044 H   0  0  0  0  0  0  0  0  0  0  0  0
    1.0887    2.3968    0.0002 H   0  0  0  0  0  0  0  0  0  0  0  0
    3.4885    2.9241    0.0005 H   0  0  0  0  0  0  0  0  0  0  0  0
    5.1546    1.1137    0.0005 H   0  0  0  0  0  0  0  0  0  0  0  0
   -0.9059   -3.5769    0.0025 H   0  0  0  0  0  0  0  0  0  0  0  0
   -3.1259   -2.5831    0.0008 H   0  0  0  0  0  0  0  0  0  0  0  0
   -0.5233    2.3050   -0.0004 H   0  0  0  0  0  0  0  0  0  0  0  0
   -4.5592   -0.5673    0.0002 H   0  0  0  0  0  0  0  0  0  0  0  0
   -4.7562    1.8610   -0.0004 H   0  0  0  0  0  0  0  0  0  0  0  0
   -2.7541    3.2864    0.0011 H   0  0  0  0  0  0  0  0  0  0  0  0
 11 12  1  0  0  0  0
 11 13  1  0  0  0  0
 12 15  2  0  0  0  0
  5 12  1  0  0  0  0
 13 14  2  0  0  0  0
  1 13  1  0  0  0  0
  2 14  1  0  0  0  0
 14 15  1  0  0  0  0
  1  4  2  0  0  0  0
  2  3  2  0  0  0  0
 15 16  1  0  0  0  0
  3  4  1  0  0  0  0
 16 17  2  0  0  0  0
  7 16  1  0  0  0  0
  5  6  2  0  0  0  0
  6 17  1  0  0  0  0
  8 17  1  0  0  0  0
  7 10  2  0  0  0  0
  8  9  2  0  0  0  0
  9 10  1  0  0  0  0
 11 18  1  0  0  0  0
 11 19  1  0  0  0  0
  1 20  1  0  0  0  0
  2 21  1  0  0  0  0
  3 22  1  0  0  0  0
  4 23  1  0  0  0  0
  5 24  1  0  0  0  0
  6 25  1  0  0  0  0
  7 26  1  0  0  0  0
  8 27  1  0  0  0  0
  9 28  1  0  0  0  0
 10 29  1  0  0  0  0
M  END
$$$$
