C18H12
APtclcactv01171906133D 0   0.00000     0.00000
 
 30 33  0  0  0  0  0  0  0  0999 V2000
    1.3940    1.6385    0.3884 C   0  0  0  0  0  0  0  0  0  0  0  0
   -1.3890    1.6399   -0.3809 C   0  0  0  0  0  0  0  0  0  0  0  0
   -1.2142   -2.5212    0.1784 C   0  0  0  0  0  0  0  0  0  0  0  0
    1.2090   -2.5216   -0.1781 C   0  0  0  0  0  0  0  0  0  0  0  0
    2.3913   -1.8753   -0.2611 C   0  0  0  0  0  0  0  0  0  0  0  0
    3.7035    0.1872   -0.1760 C   0  0  0  0  0  0  0  0  0  0  0  0
    2.6159    2.2467    0.3705 C   0  0  0  0  0  0  0  0  0  0  0  0
   -2.3966   -1.8736    0.2529 C   0  0  0  0  0  0  0  0  0  0  0  0
   -3.7043    0.1915    0.1666 C   0  0  0  0  0  0  0  0  0  0  0  0
   -2.6103    2.2498   -0.3713 C   0  0  0  0  0  0  0  0  0  0  0  0
    3.7672    1.5256    0.0732 C   0  0  0  0  0  0  0  0  0  0  0  0
   -3.7644    1.5302   -0.0818 C   0  0  0  0  0  0  0  0  0  0  0  0
    0.0001   -0.4088    0.0096 C   0  0  0  0  0  0  0  0  0  0  0  0
    1.2826    0.2801    0.0770 C   0  0  0  0  0  0  0  0  0  0  0  0
   -1.2816    0.2814   -0.0692 C   0  0  0  0  0  0  0  0  0  0  0  0
   -0.0017   -1.8202    0.0084 C   0  0  0  0  0  0  0  0  0  0  0  0
    2.4670   -0.4727   -0.1258 C   0  0  0  0  0  0  0  0  0  0  0  0
   -2.4685   -0.4703    0.1227 C   0  0  0  0  0  0  0  0  0  0  0  0
    0.5268    2.2091    0.6845 H   0  0  0  0  0  0  0  0  0  0  0  0
   -0.5193    2.2097   -0.6709 H   0  0  0  0  0  0  0  0  0  0  0  0
   -1.1966   -3.5986    0.2505 H   0  0  0  0  0  0  0  0  0  0  0  0
    1.1887   -3.5985   -0.2561 H   0  0  0  0  0  0  0  0  0  0  0  0
    3.2949   -2.4409   -0.4330 H   0  0  0  0  0  0  0  0  0  0  0  0
    4.6024   -0.3632   -0.4123 H   0  0  0  0  0  0  0  0  0  0  0  0
    2.6883    3.3020    0.5887 H   0  0  0  0  0  0  0  0  0  0  0  0
   -3.3025   -2.4385    0.4137 H   0  0  0  0  0  0  0  0  0  0  0  0
   -4.6053   -0.3577    0.3977 H   0  0  0  0  0  0  0  0  0  0  0  0
   -2.6798    3.3052   -0.5900 H   0  0  0  0  0  0  0  0  0  0  0  0
    4.7206    2.0306    0.0405 H   0  0  0  0  0  0  0  0  0  0  0  0
   -4.7172    2.0366   -0.0545 H   0  0  0  0  0  0  0  0  0  0  0  0
 13 14  1  0  0  0  0
 13 15  2  0  0  0  0
 13 16  1  0  0  0  0
 14 17  1  0  0  0  0
  1 14  2  0  0  0  0
 15 18  1  0  0  0  0
  2 15  1  0  0  0  0
  3 16  2  0  0  0  0
  4 16  1  0  0  0  0
  5 17  1  0  0  0  0
  6 17  2  0  0  0  0
  1  7  1  0  0  0  0
  8 18  2  0  0  0  0
  9 18  1  0  0  0  0
  2 10  2  0  0  0  0
  3  8  1  0  0  0  0
  4  5  2  0  0  0  0
  6 11  1  0  0  0  0
  7 11  2  0  0  0  0
  9 12  2  0  0  0  0
 10 12  1  0  0  0  0
  1 19  1  0  0  0  0
  2 20  1  0  0  0  0
  3 21  1  0  0  0  0
  4 22  1  0  0  0  0
  5 23  1  0  0  0  0
  6 24  1  0  0  0  0
  7 25  1  0  0  0  0
  8 26  1  0  0  0  0
  9 27  1  0  0  0  0
 10 28  1  0  0  0  0
 11 29  1  0  0  0  0
 12 30  1  0  0  0  0
M  END
$$$$
