C15H10
APtclcactv01171906133D 0   0.00000     0.00000
 
 25 28  0  0  0  0  0  0  0  0999 V2000
   -2.5733    1.4618    0.0007 C   0  0  0  0  0  0  0  0  0  0  0  0
   -3.3455    0.2981    0.0017 C   0  0  0  0  0  0  0  0  0  0  0  0
    2.5733    1.4618    0.0005 C   0  0  0  0  0  0  0  0  0  0  0  0
    3.3455    0.2981    0.0017 C   0  0  0  0  0  0  0  0  0  0  0  0
    2.8251   -0.9718    0.0011 C   0  0  0  0  0  0  0  0  0  0  0  0
    0.6826   -2.3131   -0.0014 C   0  0  0  0  0  0  0  0  0  0  0  0
   -0.6826   -2.3131   -0.0010 C   0  0  0  0  0  0  0  0  0  0  0  0
   -2.8251   -0.9718    0.0012 C   0  0  0  0  0  0  0  0  0  0  0  0
    0.0000    2.2724   -0.0014 C   0  0  0  0  0  0  0  0  0  0  0  0
   -1.2150    1.3692   -0.0007 C   0  0  0  0  0  0  0  0  0  0  0  0
    1.2150    1.3692   -0.0007 C   0  0  0  0  0  0  0  0  0  0  0  0
   -1.4334   -1.1160   -0.0002 C   0  0  0  0  0  0  0  0  0  0  0  0
    1.4334   -1.1160    0.0000 C   0  0  0  0  0  0  0  0  0  0  0  0
   -0.7154    0.0821   -0.0009 C   0  0  0  0  0  0  0  0  0  0  0  0
    0.7154    0.0821   -0.0007 C   0  0  0  0  0  0  0  0  0  0  0  0
   -3.0513    2.4303   -0.0034 H   0  0  0  0  0  0  0  0  0  0  0  0
   -4.4203    0.4043    0.0034 H   0  0  0  0  0  0  0  0  0  0  0  0
   -0.0000    2.8967   -0.8949 H   0  0  0  0  0  0  0  0  0  0  0  0
    0.0000    2.8981    0.8911 H   0  0  0  0  0  0  0  0  0  0  0  0
    3.0513    2.4303    0.0009 H   0  0  0  0  0  0  0  0  0  0  0  0
    4.4203    0.4043    0.0025 H   0  0  0  0  0  0  0  0  0  0  0  0
    3.4723   -1.8364    0.0018 H   0  0  0  0  0  0  0  0  0  0  0  0
    1.2054   -3.2581   -0.0011 H   0  0  0  0  0  0  0  0  0  0  0  0
   -1.2054   -3.2581   -0.0016 H   0  0  0  0  0  0  0  0  0  0  0  0
   -3.4723   -1.8364    0.0021 H   0  0  0  0  0  0  0  0  0  0  0  0
  1  2  2  0  0  0  0
  1 10  1  0  0  0  0
  2  8  1  0  0  0  0
 10 14  2  0  0  0  0
  9 10  1  0  0  0  0
 12 14  1  0  0  0  0
 14 15  1  0  0  0  0
  7 12  1  0  0  0  0
  8 12  2  0  0  0  0
 11 15  2  0  0  0  0
 13 15  1  0  0  0  0
  9 11  1  0  0  0  0
  3 11  1  0  0  0  0
  5 13  2  0  0  0  0
  6 13  1  0  0  0  0
  3  4  2  0  0  0  0
  4  5  1  0  0  0  0
  6  7  2  0  0  0  0
  1 16  1  0  0  0  0
  2 17  1  0  0  0  0
  9 18  1  0  0  0  0
  9 19  1  0  0  0  0
  3 20  1  0  0  0  0
  4 21  1  0  0  0  0
  5 22  1  0  0  0  0
  6 23  1  0  0  0  0
  7 24  1  0  0  0  0
  8 25  1  0  0  0  0
M  END
$$$$
