C20H12
APtclcactv01171906133D 0   0.00000     0.00000
 
 32 36  0  0  0  0  0  0  0  0999 V2000
   -0.3148    2.8201    0.0005 C   0  0  0  0  0  0  0  0  0  0  0  0
    3.3084    0.6737   -0.0013 C   0  0  0  0  0  0  0  0  0  0  0  0
    2.0900    2.7995    0.0005 C   0  0  0  0  0  0  0  0  0  0  0  0
   -0.3177   -2.8193    0.0002 C   0  0  0  0  0  0  0  0  0  0  0  0
    3.3078   -0.6767    0.0005 C   0  0  0  0  0  0  0  0  0  0  0  0
    2.0870   -2.8012    0.0002 C   0  0  0  0  0  0  0  0  0  0  0  0
   -2.8437    1.3947   -0.0006 C   0  0  0  0  0  0  0  0  0  0  0  0
    0.8974    3.4893    0.0008 C   0  0  0  0  0  0  0  0  0  0  0  0
   -2.8442   -1.3928    0.0004 C   0  0  0  0  0  0  0  0  0  0  0  0
    0.8937   -3.4899    0.0001 C   0  0  0  0  0  0  0  0  0  0  0  0
   -4.0302    0.6947   -0.0011 C   0  0  0  0  0  0  0  0  0  0  0  0
   -4.0305   -0.6927    0.0008 C   0  0  0  0  0  0  0  0  0  0  0  0
   -0.3489    1.4300   -0.0001 C   0  0  0  0  0  0  0  0  0  0  0  0
    2.0930    1.3999   -0.0005 C   0  0  0  0  0  0  0  0  0  0  0  0
   -0.3500   -1.4292   -0.0001 C   0  0  0  0  0  0  0  0  0  0  0  0
    2.0916   -1.4017    0.0000 C   0  0  0  0  0  0  0  0  0  0  0  0
   -1.6313    0.7051   -0.0001 C   0  0  0  0  0  0  0  0  0  0  0  0
   -1.6318   -0.7032   -0.0001 C   0  0  0  0  0  0  0  0  0  0  0  0
    0.8615    0.7065   -0.0003 C   0  0  0  0  0  0  0  0  0  0  0  0
    0.8609   -0.7068   -0.0003 C   0  0  0  0  0  0  0  0  0  0  0  0
   -1.2380    3.3805    0.0053 H   0  0  0  0  0  0  0  0  0  0  0  0
    4.2479    1.2064   -0.0013 H   0  0  0  0  0  0  0  0  0  0  0  0
    3.0250    3.3401    0.0000 H   0  0  0  0  0  0  0  0  0  0  0  0
   -1.2416   -3.3786    0.0001 H   0  0  0  0  0  0  0  0  0  0  0  0
    4.2467   -1.2104    0.0006 H   0  0  0  0  0  0  0  0  0  0  0  0
    3.0214   -3.3428    0.0005 H   0  0  0  0  0  0  0  0  0  0  0  0
   -2.8523    2.4746   -0.0010 H   0  0  0  0  0  0  0  0  0  0  0  0
    0.9082    4.5693    0.0009 H   0  0  0  0  0  0  0  0  0  0  0  0
   -2.8528   -2.4728    0.0008 H   0  0  0  0  0  0  0  0  0  0  0  0
    0.9034   -4.5698    0.0003 H   0  0  0  0  0  0  0  0  0  0  0  0
   -4.9679    1.2304   -0.0015 H   0  0  0  0  0  0  0  0  0  0  0  0
   -4.9685   -1.2281    0.0008 H   0  0  0  0  0  0  0  0  0  0  0  0
 19 20  1  0  0  0  0
 13 19  1  0  0  0  0
 14 19  2  0  0  0  0
 15 20  1  0  0  0  0
 16 20  2  0  0  0  0
 13 17  1  0  0  0  0
  1 13  2  0  0  0  0
  2 14  1  0  0  0  0
  3 14  1  0  0  0  0
 15 18  1  0  0  0  0
  4 15  2  0  0  0  0
  5 16  1  0  0  0  0
  6 16  1  0  0  0  0
  7 17  1  0  0  0  0
  1  8  1  0  0  0  0
  1 21  1  0  0  0  0
  2 22  1  0  0  0  0
  3 23  1  0  0  0  0
  9 18  1  0  0  0  0
  4 10  1  0  0  0  0
  4 24  1  0  0  0  0
  5 25  1  0  0  0  0
  6 26  1  0  0  0  0
  7 11  2  0  0  0  0
  7 27  1  0  0  0  0
  8 28  1  0  0  0  0
  9 12  2  0  0  0  0
  9 29  1  0  0  0  0
 10 30  1  0  0  0  0
 11 31  1  0  0  0  0
 12 32  1  0  0  0  0
 17 18  2  0  0  0  0
  2  5  2  0  0  0  0
  3  8  2  0  0  0  0
  6 10  2  0  0  0  0
 11 12  1  0  0  0  0
M  END
$$$$
