C23H14
APtclcactv01171906133D 0   0.00000     0.00000
 
 37 42  0  0  0  0  0  0  0  0999 V2000
   -0.9299   -2.8433   -0.0039 C   0  0  0  0  0  0  0  0  0  0  0  0
   -2.2119   -3.3683   -0.0034 C   0  0  0  0  0  0  0  0  0  0  0  0
   -3.3627   -2.5829   -0.0013 C   0  0  0  0  0  0  0  0  0  0  0  0
   -3.2485   -1.2134    0.0003 C   0  0  0  0  0  0  0  0  0  0  0  0
   -1.9596   -0.7195   -0.0003 C   0  0  0  0  0  0  0  0  0  0  0  0
   -1.9593    0.7197    0.0005 C   0  0  0  0  0  0  0  0  0  0  0  0
   -3.2479    1.2143    0.0025 C   0  0  0  0  0  0  0  0  0  0  0  0
   -3.3613    2.5839    0.0029 C   0  0  0  0  0  0  0  0  0  0  0  0
   -2.2102    3.3687    0.0011 C   0  0  0  0  0  0  0  0  0  0  0  0
   -0.9284    2.8430   -0.0013 C   0  0  0  0  0  0  0  0  0  0  0  0
   -0.7813    1.4582   -0.0002 C   0  0  0  0  0  0  0  0  0  0  0  0
    0.4929    0.7138   -0.0012 C   0  0  0  0  0  0  0  0  0  0  0  0
    1.6867    1.4156   -0.0040 C   0  0  0  0  0  0  0  0  0  0  0  0
    2.9056    0.7320   -0.0030 C   0  0  0  0  0  0  0  0  0  0  0  0
    2.9056   -0.7327    0.0018 C   0  0  0  0  0  0  0  0  0  0  0  0
    1.6867   -1.4163    0.0025 C   0  0  0  0  0  0  0  0  0  0  0  0
    0.4927   -0.7147    0.0012 C   0  0  0  0  0  0  0  0  0  0  0  0
   -0.7819   -1.4586   -0.0018 C   0  0  0  0  0  0  0  0  0  0  0  0
    4.1382   -1.4111    0.0060 C   0  0  0  0  0  0  0  0  0  0  0  0
    5.2955   -0.6966    0.0045 C   0  0  0  0  0  0  0  0  0  0  0  0
    5.2955    0.6965   -0.0009 C   0  0  0  0  0  0  0  0  0  0  0  0
    4.1380    1.4108   -0.0054 C   0  0  0  0  0  0  0  0  0  0  0  0
   -4.1515    0.0007    0.0030 C   0  0  0  0  0  0  0  0  0  0  0  0
   -0.0664   -3.4920   -0.0015 H   0  0  0  0  0  0  0  0  0  0  0  0
   -2.3252   -4.4423   -0.0051 H   0  0  0  0  0  0  0  0  0  0  0  0
   -4.3378   -3.0472   -0.0014 H   0  0  0  0  0  0  0  0  0  0  0  0
   -4.3361    3.0487    0.0044 H   0  0  0  0  0  0  0  0  0  0  0  0
   -2.3229    4.4428    0.0011 H   0  0  0  0  0  0  0  0  0  0  0  0
   -0.0646    3.4912   -0.0035 H   0  0  0  0  0  0  0  0  0  0  0  0
    1.6757    2.4955   -0.0073 H   0  0  0  0  0  0  0  0  0  0  0  0
    1.6758   -2.4963    0.0046 H   0  0  0  0  0  0  0  0  0  0  0  0
    4.1652   -2.4908    0.0106 H   0  0  0  0  0  0  0  0  0  0  0  0
    6.2386   -1.2227    0.0081 H   0  0  0  0  0  0  0  0  0  0  0  0
    6.2386    1.2227   -0.0016 H   0  0  0  0  0  0  0  0  0  0  0  0
    4.1648    2.4904   -0.0105 H   0  0  0  0  0  0  0  0  0  0  0  0
   -4.7781    0.0017   -0.8889 H   0  0  0  0  0  0  0  0  0  0  0  0
   -4.7748    0.0000    0.8973 H   0  0  0  0  0  0  0  0  0  0  0  0
  1  2  2  0  0  0  0
  2  3  1  0  0  0  0
  3  4  2  0  0  0  0
  4  5  1  0  0  0  0
  5  6  1  0  0  0  0
  6  7  2  0  0  0  0
  7  8  1  0  0  0  0
  8  9  2  0  0  0  0
  9 10  1  0  0  0  0
 10 11  2  0  0  0  0
  6 11  1  0  0  0  0
 11 12  1  0  0  0  0
 12 13  1  0  0  0  0
 13 14  2  0  0  0  0
 14 15  1  0  0  0  0
 15 16  2  0  0  0  0
 16 17  1  0  0  0  0
 12 17  2  0  0  0  0
 17 18  1  0  0  0  0
  1 18  1  0  0  0  0
  5 18  2  0  0  0  0
 15 19  1  0  0  0  0
 19 20  2  0  0  0  0
 20 21  1  0  0  0  0
 21 22  2  0  0  0  0
 14 22  1  0  0  0  0
  7 23  1  0  0  0  0
  4 23  1  0  0  0  0
  1 24  1  0  0  0  0
  2 25  1  0  0  0  0
  3 26  1  0  0  0  0
  8 27  1  0  0  0  0
  9 28  1  0  0  0  0
 10 29  1  0  0  0  0
 13 30  1  0  0  0  0
 16 31  1  0  0  0  0
 19 32  1  0  0  0  0
 20 33  1  0  0  0  0
 21 34  1  0  0  0  0
 22 35  1  0  0  0  0
 23 36  1  0  0  0  0
 23 37  1  0  0  0  0
M  END
$$$$
