C15H10
APtclcactv01171906133D 0   0.00000     0.00000
 
 25 28  0  0  0  0  0  0  0  0999 V2000
   -3.0619    0.7369    0.0002 C   0  0  0  0  0  0  0  0  0  0  0  0
   -3.0948   -0.6250   -0.0003 C   0  0  0  0  0  0  0  0  0  0  0  0
   -1.7248   -1.1378   -0.0005 C   0  0  0  0  0  0  0  0  0  0  0  0
   -1.0634   -2.3616   -0.0001 C   0  0  0  0  0  0  0  0  0  0  0  0
    0.3338   -2.4127    0.0003 C   0  0  0  0  0  0  0  0  0  0  0  0
    1.1082   -1.2805    0.0004 C   0  0  0  0  0  0  0  0  0  0  0  0
    0.4697   -0.0323    0.0001 C   0  0  0  0  0  0  0  0  0  0  0  0
    1.1912    1.2387    0.0002 C   0  0  0  0  0  0  0  0  0  0  0  0
    0.4317    2.4032    0.0005 C   0  0  0  0  0  0  0  0  0  0  0  0
   -0.9598    2.3822   -0.0000 C   0  0  0  0  0  0  0  0  0  0  0  0
   -1.6685    1.1836    0.0005 C   0  0  0  0  0  0  0  0  0  0  0  0
   -0.9124    0.0034   -0.0003 C   0  0  0  0  0  0  0  0  0  0  0  0
    2.6579    1.2155   -0.0006 C   0  0  0  0  0  0  0  0  0  0  0  0
    3.3247    0.0635   -0.0006 C   0  0  0  0  0  0  0  0  0  0  0  0
    2.6148   -1.2722    0.0003 C   0  0  0  0  0  0  0  0  0  0  0  0
   -3.9266    1.3839   -0.0036 H   0  0  0  0  0  0  0  0  0  0  0  0
   -3.9897   -1.2297   -0.0000 H   0  0  0  0  0  0  0  0  0  0  0  0
   -1.6334   -3.2789    0.0002 H   0  0  0  0  0  0  0  0  0  0  0  0
    0.8202   -3.3769    0.0009 H   0  0  0  0  0  0  0  0  0  0  0  0
    0.9388    3.3567    0.0016 H   0  0  0  0  0  0  0  0  0  0  0  0
   -1.5020    3.3162    0.0003 H   0  0  0  0  0  0  0  0  0  0  0  0
    3.2048    2.1468   -0.0015 H   0  0  0  0  0  0  0  0  0  0  0  0
    4.4045    0.0830   -0.0012 H   0  0  0  0  0  0  0  0  0  0  0  0
    2.9489   -1.8239    0.8791 H   0  0  0  0  0  0  0  0  0  0  0  0
    2.9485   -1.8250   -0.8778 H   0  0  0  0  0  0  0  0  0  0  0  0
  1  2  2  0  0  0  0
  2  3  1  0  0  0  0
  3  4  1  0  0  0  0
  4  5  2  0  0  0  0
  5  6  1  0  0  0  0
  6  7  2  0  0  0  0
  7  8  1  0  0  0  0
  8  9  2  0  0  0  0
  9 10  1  0  0  0  0
 10 11  2  0  0  0  0
  1 11  1  0  0  0  0
 11 12  1  0  0  0  0
  3 12  2  0  0  0  0
  7 12  1  0  0  0  0
  8 13  1  0  0  0  0
 13 14  2  0  0  0  0
 14 15  1  0  0  0  0
  6 15  1  0  0  0  0
  1 16  1  0  0  0  0
  2 17  1  0  0  0  0
  4 18  1  0  0  0  0
  5 19  1  0  0  0  0
  9 20  1  0  0  0  0
 10 21  1  0  0  0  0
 13 22  1  0  0  0  0
 14 23  1  0  0  0  0
 15 24  1  0  0  0  0
 15 25  1  0  0  0  0
M  END
$$$$
