C17H12
APtclcactv01171906143D 0   0.00000     0.00000
 
 29 32  0  0  0  0  0  0  0  0999 V2000
   -1.3923   -1.6662    0.0001 C   0  0  0  0  0  0  0  0  0  0  0  0
   -2.6399   -2.2129    0.0004 C   0  0  0  0  0  0  0  0  0  0  0  0
   -3.7755   -1.4058    0.0005 C   0  0  0  0  0  0  0  0  0  0  0  0
   -3.6704   -0.0486    0.0001 C   0  0  0  0  0  0  0  0  0  0  0  0
   -2.3984    0.5502   -0.0002 C   0  0  0  0  0  0  0  0  0  0  0  0
   -2.2525    1.9483   -0.0000 C   0  0  0  0  0  0  0  0  0  0  0  0
   -1.0086    2.5024    0.0002 C   0  0  0  0  0  0  0  0  0  0  0  0
    0.1336    1.7085   -0.0003 C   0  0  0  0  0  0  0  0  0  0  0  0
    1.6021    2.0629    0.0002 C   0  0  0  0  0  0  0  0  0  0  0  0
    2.3465    0.7506    0.0000 C   0  0  0  0  0  0  0  0  0  0  0  0
    3.6903    0.4446    0.0007 C   0  0  0  0  0  0  0  0  0  0  0  0
    4.0994   -0.8775    0.0008 C   0  0  0  0  0  0  0  0  0  0  0  0
    3.1616   -1.8947   -0.0002 C   0  0  0  0  0  0  0  0  0  0  0  0
    1.8148   -1.5986   -0.0013 C   0  0  0  0  0  0  0  0  0  0  0  0
    1.3940   -0.2661   -0.0005 C   0  0  0  0  0  0  0  0  0  0  0  0
    0.0381    0.3297   -0.0007 C   0  0  0  0  0  0  0  0  0  0  0  0
   -1.2461   -0.2715   -0.0003 C   0  0  0  0  0  0  0  0  0  0  0  0
   -0.5204   -2.3035    0.0045 H   0  0  0  0  0  0  0  0  0  0  0  0
   -2.7504   -3.2873    0.0004 H   0  0  0  0  0  0  0  0  0  0  0  0
   -4.7537   -1.8636    0.0004 H   0  0  0  0  0  0  0  0  0  0  0  0
   -4.5593    0.5648   -0.0002 H   0  0  0  0  0  0  0  0  0  0  0  0
   -3.1265    2.5827   -0.0004 H   0  0  0  0  0  0  0  0  0  0  0  0
   -0.9071    3.5777    0.0004 H   0  0  0  0  0  0  0  0  0  0  0  0
    1.8505    2.6355   -0.8935 H   0  0  0  0  0  0  0  0  0  0  0  0
    1.8500    2.6350    0.8942 H   0  0  0  0  0  0  0  0  0  0  0  0
    4.4243    1.2368    0.0008 H   0  0  0  0  0  0  0  0  0  0  0  0
    5.1529   -1.1156    0.0014 H   0  0  0  0  0  0  0  0  0  0  0  0
    3.4856   -2.9250   -0.0005 H   0  0  0  0  0  0  0  0  0  0  0  0
    1.0860   -2.3957   -0.0021 H   0  0  0  0  0  0  0  0  0  0  0  0
  1  2  2  0  0  0  0
  2  3  1  0  0  0  0
  3  4  2  0  0  0  0
  4  5  1  0  0  0  0
  5  6  1  0  0  0  0
  6  7  2  0  0  0  0
  7  8  1  0  0  0  0
  8  9  1  0  0  0  0
  9 10  1  0  0  0  0
 10 11  1  0  0  0  0
 11 12  2  0  0  0  0
 12 13  1  0  0  0  0
 13 14  2  0  0  0  0
 14 15  1  0  0  0  0
 10 15  2  0  0  0  0
 15 16  1  0  0  0  0
  8 16  2  0  0  0  0
 16 17  1  0  0  0  0
  5 17  2  0  0  0  0
  1 17  1  0  0  0  0
  1 18  1  0  0  0  0
  2 19  1  0  0  0  0
  3 20  1  0  0  0  0
  4 21  1  0  0  0  0
  6 22  1  0  0  0  0
  7 23  1  0  0  0  0
  9 24  1  0  0  0  0
  9 25  1  0  0  0  0
 11 26  1  0  0  0  0
 12 27  1  0  0  0  0
 13 28  1  0  0  0  0
 14 29  1  0  0  0  0
M  END
$$$$
