C21H14
APtclcactv01171906203D 0   0.00000     0.00000
 
 35 39  0  0  0  0  0  0  0  0999 V2000
    0.9651    1.6567    0.6498 C   0  0  0  0  0  0  0  0  0  0  0  0
    1.5002    0.4573    0.1817 C   0  0  0  0  0  0  0  0  0  0  0  0
    0.7069   -0.7614    0.0436 C   0  0  0  0  0  0  0  0  0  0  0  0
   -0.7007   -0.7766    0.0590 C   0  0  0  0  0  0  0  0  0  0  0  0
   -1.3460   -1.9940    0.2459 C   0  0  0  0  0  0  0  0  0  0  0  0
   -0.6348   -3.1838    0.2657 C   0  0  0  0  0  0  0  0  0  0  0  0
    0.7140   -3.1937    0.0614 C   0  0  0  0  0  0  0  0  0  0  0  0
    1.3989   -1.9854   -0.1207 C   0  0  0  0  0  0  0  0  0  0  0  0
    2.7605   -1.9720   -0.5021 C   0  0  0  0  0  0  0  0  0  0  0  0
    3.4610   -0.8210   -0.5427 C   0  0  0  0  0  0  0  0  0  0  0  0
    2.8727    0.4083   -0.1655 C   0  0  0  0  0  0  0  0  0  0  0  0
    3.6371    1.5828   -0.1240 C   0  0  0  0  0  0  0  0  0  0  0  0
    3.0669    2.7489    0.2944 C   0  0  0  0  0  0  0  0  0  0  0  0
    1.7361    2.7828    0.6922 C   0  0  0  0  0  0  0  0  0  0  0  0
   -2.8195   -1.7080    0.4079 C   0  0  0  0  0  0  0  0  0  0  0  0
   -2.9878   -0.2411    0.0988 C   0  0  0  0  0  0  0  0  0  0  0  0
   -4.1026    0.5666    0.0418 C   0  0  0  0  0  0  0  0  0  0  0  0
   -3.9775    1.8991   -0.3072 C   0  0  0  0  0  0  0  0  0  0  0  0
   -2.7304    2.4189   -0.6024 C   0  0  0  0  0  0  0  0  0  0  0  0
   -1.6073    1.6188   -0.5347 C   0  0  0  0  0  0  0  0  0  0  0  0
   -1.7184    0.2790   -0.1575 C   0  0  0  0  0  0  0  0  0  0  0  0
   -0.0519    1.6955    1.0149 H   0  0  0  0  0  0  0  0  0  0  0  0
   -1.1547   -4.1126    0.4437 H   0  0  0  0  0  0  0  0  0  0  0  0
    1.2501   -4.1297    0.0420 H   0  0  0  0  0  0  0  0  0  0  0  0
    3.2458   -2.9000   -0.7641 H   0  0  0  0  0  0  0  0  0  0  0  0
    4.4889   -0.8395   -0.8687 H   0  0  0  0  0  0  0  0  0  0  0  0
    4.6745    1.5635   -0.4218 H   0  0  0  0  0  0  0  0  0  0  0  0
    3.6555    3.6532    0.3175 H   0  0  0  0  0  0  0  0  0  0  0  0
    1.3076    3.7113    1.0396 H   0  0  0  0  0  0  0  0  0  0  0  0
   -3.3976   -2.3095   -0.2929 H   0  0  0  0  0  0  0  0  0  0  0  0
   -3.1323   -1.9157    1.4315 H   0  0  0  0  0  0  0  0  0  0  0  0
   -5.0762    0.1575    0.2691 H   0  0  0  0  0  0  0  0  0  0  0  0
   -4.8498    2.5333   -0.3492 H   0  0  0  0  0  0  0  0  0  0  0  0
   -2.6324    3.4557   -0.8880 H   0  0  0  0  0  0  0  0  0  0  0  0
   -0.6450    2.0322   -0.8003 H   0  0  0  0  0  0  0  0  0  0  0  0
  1  2  2  0  0  0  0
  2  3  1  0  0  0  0
  3  4  1  0  0  0  0
  4  5  2  0  0  0  0
  5  6  1  0  0  0  0
  6  7  2  0  0  0  0
  7  8  1  0  0  0  0
  3  8  2  0  0  0  0
  8  9  1  0  0  0  0
  9 10  2  0  0  0  0
 10 11  1  0  0  0  0
  2 11  1  0  0  0  0
 11 12  2  0  0  0  0
 12 13  1  0  0  0  0
 13 14  2  0  0  0  0
  1 14  1  0  0  0  0
  5 15  1  0  0  0  0
 15 16  1  0  0  0  0
 16 17  2  0  0  0  0
 17 18  1  0  0  0  0
 18 19  2  0  0  0  0
 19 20  1  0  0  0  0
 20 21  2  0  0  0  0
 16 21  1  0  0  0  0
  4 21  1  0  0  0  0
  1 22  1  0  0  0  0
  6 23  1  0  0  0  0
  7 24  1  0  0  0  0
  9 25  1  0  0  0  0
 10 26  1  0  0  0  0
 12 27  1  0  0  0  0
 13 28  1  0  0  0  0
 14 29  1  0  0  0  0
 15 30  1  0  0  0  0
 15 31  1  0  0  0  0
 17 32  1  0  0  0  0
 18 33  1  0  0  0  0
 19 34  1  0  0  0  0
 20 35  1  0  0  0  0
M  END
$$$$
