C16H10
APtclcactv01171906203D 0   0.00000     0.00000
 
 26 29  0  0  0  0  0  0  0  0999 V2000
   -0.6772   -2.3973   -0.0014 C   0  0  0  0  0  0  0  0  0  0  0  0
   -1.9995   -2.2892   -0.0007 C   0  0  0  0  0  0  0  0  0  0  0  0
   -2.3249   -0.8544    0.0005 C   0  0  0  0  0  0  0  0  0  0  0  0
   -3.3944   -0.0987    0.0018 C   0  0  0  0  0  0  0  0  0  0  0  0
   -3.2984    1.3694    0.0014 C   0  0  0  0  0  0  0  0  0  0  0  0
   -2.1579    2.0314    0.0001 C   0  0  0  0  0  0  0  0  0  0  0  0
   -0.8953    1.2651   -0.0006 C   0  0  0  0  0  0  0  0  0  0  0  0
    0.2959    1.8179   -0.0020 C   0  0  0  0  0  0  0  0  0  0  0  0
    1.4850    0.9376   -0.0012 C   0  0  0  0  0  0  0  0  0  0  0  0
    2.6941    1.4502   -0.0001 C   0  0  0  0  0  0  0  0  0  0  0  0
    3.8696    0.5614    0.0015 C   0  0  0  0  0  0  0  0  0  0  0  0
    3.7114   -0.7451    0.0014 C   0  0  0  0  0  0  0  0  0  0  0  0
    2.3547   -1.3228    0.0003 C   0  0  0  0  0  0  0  0  0  0  0  0
    1.3107   -0.5317   -0.0006 C   0  0  0  0  0  0  0  0  0  0  0  0
   -0.0650   -1.0628   -0.0006 C   0  0  0  0  0  0  0  0  0  0  0  0
   -1.0198   -0.1865   -0.0001 C   0  0  0  0  0  0  0  0  0  0  0  0
   -0.1316   -3.3294    0.0017 H   0  0  0  0  0  0  0  0  0  0  0  0
   -2.7073   -3.1049   -0.0013 H   0  0  0  0  0  0  0  0  0  0  0  0
   -4.3691   -0.5638    0.0029 H   0  0  0  0  0  0  0  0  0  0  0  0
   -4.2163    1.9386    0.0017 H   0  0  0  0  0  0  0  0  0  0  0  0
   -2.1473    3.1114   -0.0008 H   0  0  0  0  0  0  0  0  0  0  0  0
    0.4052    2.8924   -0.0040 H   0  0  0  0  0  0  0  0  0  0  0  0
    2.8268    2.5220   -0.0008 H   0  0  0  0  0  0  0  0  0  0  0  0
    4.8637    0.9835    0.0024 H   0  0  0  0  0  0  0  0  0  0  0  0
    4.5749   -1.3938    0.0018 H   0  0  0  0  0  0  0  0  0  0  0  0
    2.2222   -2.3947    0.0003 H   0  0  0  0  0  0  0  0  0  0  0  0
  1  2  2  0  0  0  0
  2  3  1  0  0  0  0
  3  4  2  0  0  0  0
  4  5  1  0  0  0  0
  5  6  2  0  0  0  0
  6  7  1  0  0  0  0
  7  8  2  0  0  0  0
  8  9  1  0  0  0  0
  9 10  2  0  0  0  0
 10 11  1  0  0  0  0
 11 12  2  0  0  0  0
 12 13  1  0  0  0  0
 13 14  2  0  0  0  0
  9 14  1  0  0  0  0
 14 15  1  0  0  0  0
  1 15  1  0  0  0  0
 15 16  2  0  0  0  0
  3 16  1  0  0  0  0
  7 16  1  0  0  0  0
  1 17  1  0  0  0  0
  2 18  1  0  0  0  0
  4 19  1  0  0  0  0
  5 20  1  0  0  0  0
  6 21  1  0  0  0  0
  8 22  1  0  0  0  0
 10 23  1  0  0  0  0
 11 24  1  0  0  0  0
 12 25  1  0  0  0  0
 13 26  1  0  0  0  0
M  END
$$$$
