C12H8
APtclcactv01171906213D 0   0.00000     0.00000
 
 20 22  0  0  0  0  0  0  0  0999 V2000
    2.3568   -0.2878    0.0000 C   0  0  0  0  0  0  0  0  0  0  0  0
   -2.3568   -0.2878   -0.0004 C   0  0  0  0  0  0  0  0  0  0  0  0
    1.2413    1.9050    0.0001 C   0  0  0  0  0  0  0  0  0  0  0  0
   -1.2413    1.9050    0.0003 C   0  0  0  0  0  0  0  0  0  0  0  0
    2.3925    1.1079   -0.0001 C   0  0  0  0  0  0  0  0  0  0  0  0
   -2.3925    1.1079   -0.0000 C   0  0  0  0  0  0  0  0  0  0  0  0
    1.1376   -0.9610    0.0003 C   0  0  0  0  0  0  0  0  0  0  0  0
   -1.1376   -0.9610    0.0001 C   0  0  0  0  0  0  0  0  0  0  0  0
    0.6644   -2.3520    0.0001 C   0  0  0  0  0  0  0  0  0  0  0  0
   -0.6644   -2.3520   -0.0000 C   0  0  0  0  0  0  0  0  0  0  0  0
    0.0000    1.2746   -0.0002 C   0  0  0  0  0  0  0  0  0  0  0  0
   -0.0000   -0.1829    0.0003 C   0  0  0  0  0  0  0  0  0  0  0  0
    1.2932   -3.2300   -0.0004 H   0  0  0  0  0  0  0  0  0  0  0  0
    3.2798   -0.8486   -0.0046 H   0  0  0  0  0  0  0  0  0  0  0  0
   -1.2932   -3.2300    0.0004 H   0  0  0  0  0  0  0  0  0  0  0  0
   -3.2798   -0.8486   -0.0007 H   0  0  0  0  0  0  0  0  0  0  0  0
    1.3145    2.9825    0.0002 H   0  0  0  0  0  0  0  0  0  0  0  0
   -1.3145    2.9825   -0.0003 H   0  0  0  0  0  0  0  0  0  0  0  0
    3.3555    1.5968    0.0001 H   0  0  0  0  0  0  0  0  0  0  0  0
   -3.3555    1.5968   -0.0000 H   0  0  0  0  0  0  0  0  0  0  0  0
  7 12  1  0  0  0  0
  8 12  2  0  0  0  0
 11 12  1  0  0  0  0
  7  9  1  0  0  0  0
  1  7  2  0  0  0  0
  8 10  1  0  0  0  0
  2  8  1  0  0  0  0
  3 11  1  0  0  0  0
  4 11  2  0  0  0  0
  9 13  1  0  0  0  0
  1  5  1  0  0  0  0
  1 14  1  0  0  0  0
 10 15  1  0  0  0  0
  2  6  2  0  0  0  0
  2 16  1  0  0  0  0
  3 17  1  0  0  0  0
  4 18  1  0  0  0  0
  5 19  1  0  0  0  0
  6 20  1  0  0  0  0
  9 10  2  0  0  0  0
  3  5  2  0  0  0  0
  4  6  1  0  0  0  0
M  END
$$$$
