C28H14
APtclcactv01171906213D 0   0.00000     0.00000
 
 42 49  0  0  0  0  0  0  0  0999 V2000
   -6.3841    0.6827    0.0023 C   0  0  0  0  0  0  0  0  0  0  0  0
   -6.3845   -0.6810    0.0059 C   0  0  0  0  0  0  0  0  0  0  0  0
   -5.0049   -1.1712    0.0045 C   0  0  0  0  0  0  0  0  0  0  0  0
   -4.2358    0.0002    0.0001 C   0  0  0  0  0  0  0  0  0  0  0  0
   -5.0042    1.1719   -0.0014 C   0  0  0  0  0  0  0  0  0  0  0  0
   -4.2652    2.3483   -0.0049 C   0  0  0  0  0  0  0  0  0  0  0  0
   -2.8622    2.3481   -0.0058 C   0  0  0  0  0  0  0  0  0  0  0  0
   -2.1204    1.1779   -0.0038 C   0  0  0  0  0  0  0  0  0  0  0  0
   -0.7183    0.7119   -0.0023 C   0  0  0  0  0  0  0  0  0  0  0  0
    0.4866    1.3952    0.0011 C   0  0  0  0  0  0  0  0  0  0  0  0
    1.6975    0.7077   -0.0003 C   0  0  0  0  0  0  0  0  0  0  0  0
    1.6976   -0.7090   -0.0048 C   0  0  0  0  0  0  0  0  0  0  0  0
    0.4868   -1.3965   -0.0074 C   0  0  0  0  0  0  0  0  0  0  0  0
   -0.7184   -0.7135   -0.0046 C   0  0  0  0  0  0  0  0  0  0  0  0
   -2.1207   -1.1789   -0.0001 C   0  0  0  0  0  0  0  0  0  0  0  0
   -2.8635   -2.3486    0.0057 C   0  0  0  0  0  0  0  0  0  0  0  0
   -4.2665   -2.3479    0.0060 C   0  0  0  0  0  0  0  0  0  0  0  0
   -2.8745   -0.0004   -0.0025 C   0  0  0  0  0  0  0  0  0  0  0  0
    3.1022   -1.1593   -0.0035 C   0  0  0  0  0  0  0  0  0  0  0  0
    3.7769   -2.3700   -0.0047 C   0  0  0  0  0  0  0  0  0  0  0  0
    5.1702   -2.3864   -0.0020 C   0  0  0  0  0  0  0  0  0  0  0  0
    5.9289   -1.2474    0.0015 C   0  0  0  0  0  0  0  0  0  0  0  0
    5.2828    0.0005    0.0024 C   0  0  0  0  0  0  0  0  0  0  0  0
    5.9281    1.2488    0.0047 C   0  0  0  0  0  0  0  0  0  0  0  0
    5.1688    2.3874    0.0054 C   0  0  0  0  0  0  0  0  0  0  0  0
    3.7755    2.3701    0.0047 C   0  0  0  0  0  0  0  0  0  0  0  0
    3.1017    1.1589    0.0017 C   0  0  0  0  0  0  0  0  0  0  0  0
    3.8852   -0.0000    0.0004 C   0  0  0  0  0  0  0  0  0  0  0  0
   -7.2661    1.3060   -0.0020 H   0  0  0  0  0  0  0  0  0  0  0  0
   -7.2669   -1.3037    0.0097 H   0  0  0  0  0  0  0  0  0  0  0  0
   -4.7876    3.2936   -0.0073 H   0  0  0  0  0  0  0  0  0  0  0  0
   -2.3416    3.2944   -0.0085 H   0  0  0  0  0  0  0  0  0  0  0  0
    0.4869    2.4752    0.0045 H   0  0  0  0  0  0  0  0  0  0  0  0
    0.4872   -2.4765   -0.0126 H   0  0  0  0  0  0  0  0  0  0  0  0
   -2.3435   -3.2952    0.0079 H   0  0  0  0  0  0  0  0  0  0  0  0
   -4.7895   -3.2929    0.0111 H   0  0  0  0  0  0  0  0  0  0  0  0
    3.2243   -3.2979   -0.0074 H   0  0  0  0  0  0  0  0  0  0  0  0
    5.6744   -3.3415   -0.0023 H   0  0  0  0  0  0  0  0  0  0  0  0
    7.0072   -1.3066    0.0039 H   0  0  0  0  0  0  0  0  0  0  0  0
    7.0064    1.3087    0.0063 H   0  0  0  0  0  0  0  0  0  0  0  0
    5.6724    3.3428    0.0070 H   0  0  0  0  0  0  0  0  0  0  0  0
    3.2222    3.2976    0.0066 H   0  0  0  0  0  0  0  0  0  0  0  0
  1  2  2  0  0  0  0
  2  3  1  0  0  0  0
  3  4  1  0  0  0  0
  4  5  2  0  0  0  0
  1  5  1  0  0  0  0
  5  6  1  0  0  0  0
  6  7  2  0  0  0  0
  7  8  1  0  0  0  0
  8  9  1  0  0  0  0
  9 10  2  0  0  0  0
 10 11  1  0  0  0  0
 11 12  2  0  0  0  0
 12 13  1  0  0  0  0
 13 14  2  0  0  0  0
  9 14  1  0  0  0  0
 14 15  1  0  0  0  0
 15 16  2  0  0  0  0
 16 17  1  0  0  0  0
  3 17  2  0  0  0  0
 15 18  1  0  0  0  0
  8 18  2  0  0  0  0
  4 18  1  0  0  0  0
 12 19  1  0  0  0  0
 19 20  1  0  0  0  0
 20 21  2  0  0  0  0
 21 22  1  0  0  0  0
 22 23  2  0  0  0  0
 23 24  1  0  0  0  0
 24 25  2  0  0  0  0
 25 26  1  0  0  0  0
 26 27  2  0  0  0  0
 11 27  1  0  0  0  0
 27 28  1  0  0  0  0
 19 28  2  0  0  0  0
 23 28  1  0  0  0  0
  1 29  1  0  0  0  0
  2 30  1  0  0  0  0
  6 31  1  0  0  0  0
  7 32  1  0  0  0  0
 10 33  1  0  0  0  0
 13 34  1  0  0  0  0
 16 35  1  0  0  0  0
 17 36  1  0  0  0  0
 20 37  1  0  0  0  0
 21 38  1  0  0  0  0
 22 39  1  0  0  0  0
 24 40  1  0  0  0  0
 25 41  1  0  0  0  0
 26 42  1  0  0  0  0
M  END
$$$$
