C26H14
APtclcactv01171906213D 0   0.00000     0.00000
 
 40 46  0  0  0  0  0  0  0  0999 V2000
   -5.3447    0.0691    0.0062 C   0  0  0  0  0  0  0  0  0  0  0  0
   -5.2483   -1.2955    0.0135 C   0  0  0  0  0  0  0  0  0  0  0  0
   -4.0284   -1.9707    0.0138 C   0  0  0  0  0  0  0  0  0  0  0  0
   -2.8443   -1.2532    0.0061 C   0  0  0  0  0  0  0  0  0  0  0  0
   -1.3997   -1.5561    0.0018 C   0  0  0  0  0  0  0  0  0  0  0  0
   -0.6880   -2.7546   -0.0009 C   0  0  0  0  0  0  0  0  0  0  0  0
    0.6881   -2.7546   -0.0041 C   0  0  0  0  0  0  0  0  0  0  0  0
    1.3999   -1.5561   -0.0033 C   0  0  0  0  0  0  0  0  0  0  0  0
    0.7003   -0.3261    0.0004 C   0  0  0  0  0  0  0  0  0  0  0  0
   -0.7002   -0.3261   -0.0009 C   0  0  0  0  0  0  0  0  0  0  0  0
   -1.6967    0.7610   -0.0068 C   0  0  0  0  0  0  0  0  0  0  0  0
   -1.6830    2.1464   -0.0159 C   0  0  0  0  0  0  0  0  0  0  0  0
   -2.8853    2.8511   -0.0200 C   0  0  0  0  0  0  0  0  0  0  0  0
   -4.1086    2.2379   -0.0146 C   0  0  0  0  0  0  0  0  0  0  0  0
   -4.1655    0.8340   -0.0019 C   0  0  0  0  0  0  0  0  0  0  0  0
   -2.9516    0.1419   -0.0008 C   0  0  0  0  0  0  0  0  0  0  0  0
    1.6968    0.7610    0.0066 C   0  0  0  0  0  0  0  0  0  0  0  0
    1.6828    2.1464    0.0157 C   0  0  0  0  0  0  0  0  0  0  0  0
    2.8852    2.8511    0.0185 C   0  0  0  0  0  0  0  0  0  0  0  0
    4.1084    2.2380    0.0127 C   0  0  0  0  0  0  0  0  0  0  0  0
    4.1655    0.8341    0.0039 C   0  0  0  0  0  0  0  0  0  0  0  0
    5.3447    0.0692   -0.0036 C   0  0  0  0  0  0  0  0  0  0  0  0
    5.2483   -1.2954   -0.0107 C   0  0  0  0  0  0  0  0  0  0  0  0
    4.0285   -1.9707   -0.0119 C   0  0  0  0  0  0  0  0  0  0  0  0
    2.8444   -1.2531   -0.0052 C   0  0  0  0  0  0  0  0  0  0  0  0
    2.9516    0.1420    0.0019 C   0  0  0  0  0  0  0  0  0  0  0  0
   -6.3112    0.5509    0.0022 H   0  0  0  0  0  0  0  0  0  0  0  0
   -6.1588   -1.8763    0.0197 H   0  0  0  0  0  0  0  0  0  0  0  0
   -4.0072   -3.0504    0.0205 H   0  0  0  0  0  0  0  0  0  0  0  0
   -1.2223   -3.6932   -0.0001 H   0  0  0  0  0  0  0  0  0  0  0  0
    1.2223   -3.6933   -0.0068 H   0  0  0  0  0  0  0  0  0  0  0  0
   -0.7432    2.6787   -0.0195 H   0  0  0  0  0  0  0  0  0  0  0  0
   -2.8500    3.9305   -0.0273 H   0  0  0  0  0  0  0  0  0  0  0  0
   -5.0159    2.8237   -0.0179 H   0  0  0  0  0  0  0  0  0  0  0  0
    0.7430    2.6786    0.0202 H   0  0  0  0  0  0  0  0  0  0  0  0
    2.8498    3.9305    0.0251 H   0  0  0  0  0  0  0  0  0  0  0  0
    5.0157    2.8238    0.0146 H   0  0  0  0  0  0  0  0  0  0  0  0
    6.3112    0.5510   -0.0040 H   0  0  0  0  0  0  0  0  0  0  0  0
    6.1588   -1.8762   -0.0161 H   0  0  0  0  0  0  0  0  0  0  0  0
    4.0073   -3.0505   -0.0181 H   0  0  0  0  0  0  0  0  0  0  0  0
  1  2  2  0  0  0  0
  2  3  1  0  0  0  0
  3  4  2  0  0  0  0
  4  5  1  0  0  0  0
  5  6  1  0  0  0  0
  6  7  2  0  0  0  0
  7  8  1  0  0  0  0
  8  9  2  0  0  0  0
  9 10  1  0  0  0  0
  5 10  2  0  0  0  0
 10 11  1  0  0  0  0
 11 12  1  0  0  0  0
 12 13  2  0  0  0  0
 13 14  1  0  0  0  0
 14 15  2  0  0  0  0
  1 15  1  0  0  0  0
 15 16  1  0  0  0  0
  4 16  1  0  0  0  0
 11 16  2  0  0  0  0
  9 17  1  0  0  0  0
 17 18  1  0  0  0  0
 18 19  2  0  0  0  0
 19 20  1  0  0  0  0
 20 21  2  0  0  0  0
 21 22  1  0  0  0  0
 22 23  2  0  0  0  0
 23 24  1  0  0  0  0
 24 25  2  0  0  0  0
  8 25  1  0  0  0  0
 25 26  1  0  0  0  0
 17 26  2  0  0  0  0
 21 26  1  0  0  0  0
  1 27  1  0  0  0  0
  2 28  1  0  0  0  0
  3 29  1  0  0  0  0
  6 30  1  0  0  0  0
  7 31  1  0  0  0  0
 12 32  1  0  0  0  0
 13 33  1  0  0  0  0
 14 34  1  0  0  0  0
 18 35  1  0  0  0  0
 19 36  1  0  0  0  0
 20 37  1  0  0  0  0
 22 38  1  0  0  0  0
 23 39  1  0  0  0  0
 24 40  1  0  0  0  0
M  END
$$$$
