C26H16
APtclcactv01171906213D 0   0.00000     0.00000
 
 42 47  0  0  0  0  0  0  0  0999 V2000
    5.9357   -1.1387   -0.0007 C   0  0  0  0  0  0  0  0  0  0  0  0
    4.5772   -0.7595    0.0000 C   0  0  0  0  0  0  0  0  0  0  0  0
    3.5614   -1.7163    0.0002 C   0  0  0  0  0  0  0  0  0  0  0  0
    2.2310   -1.3071    0.0005 C   0  0  0  0  0  0  0  0  0  0  0  0
    1.1806   -2.2557    0.0002 C   0  0  0  0  0  0  0  0  0  0  0  0
   -0.1112   -1.8624   -0.0002 C   0  0  0  0  0  0  0  0  0  0  0  0
   -0.4849   -0.5067   -0.0004 C   0  0  0  0  0  0  0  0  0  0  0  0
    0.4850    0.5087    0.0002 C   0  0  0  0  0  0  0  0  0  0  0  0
    0.1106    1.8641   -0.0005 C   0  0  0  0  0  0  0  0  0  0  0  0
   -1.1813    2.2572   -0.0005 C   0  0  0  0  0  0  0  0  0  0  0  0
   -2.2316    1.3084   -0.0004 C   0  0  0  0  0  0  0  0  0  0  0  0
   -3.5624    1.7167   -0.0000 C   0  0  0  0  0  0  0  0  0  0  0  0
   -4.5775    0.7589    0.0002 C   0  0  0  0  0  0  0  0  0  0  0  0
   -5.9364    1.1370    0.0001 C   0  0  0  0  0  0  0  0  0  0  0  0
   -6.8985    0.1781   -0.0001 C   0  0  0  0  0  0  0  0  0  0  0  0
   -6.5803   -1.1793   -0.0002 C   0  0  0  0  0  0  0  0  0  0  0  0
   -5.2919   -1.6104    0.0004 C   0  0  0  0  0  0  0  0  0  0  0  0
   -4.2435   -0.6681    0.0001 C   0  0  0  0  0  0  0  0  0  0  0  0
   -2.9066   -1.0742    0.0002 C   0  0  0  0  0  0  0  0  0  0  0  0
   -1.9020   -0.1194   -0.0008 C   0  0  0  0  0  0  0  0  0  0  0  0
    1.9019    0.1209    0.0005 C   0  0  0  0  0  0  0  0  0  0  0  0
    2.9074    1.0749    0.0013 C   0  0  0  0  0  0  0  0  0  0  0  0
    4.2440    0.6678    0.0001 C   0  0  0  0  0  0  0  0  0  0  0  0
    5.2934    1.6091    0.0009 C   0  0  0  0  0  0  0  0  0  0  0  0
    6.5813    1.1769   -0.0003 C   0  0  0  0  0  0  0  0  0  0  0  0
    6.8987   -0.1807   -0.0013 C   0  0  0  0  0  0  0  0  0  0  0  0
    6.2084   -2.1836    0.0038 H   0  0  0  0  0  0  0  0  0  0  0  0
    3.8060   -2.7682   -0.0002 H   0  0  0  0  0  0  0  0  0  0  0  0
    1.4157   -3.3097    0.0000 H   0  0  0  0  0  0  0  0  0  0  0  0
   -0.8849   -2.6158   -0.0007 H   0  0  0  0  0  0  0  0  0  0  0  0
    0.8841    2.6179   -0.0006 H   0  0  0  0  0  0  0  0  0  0  0  0
   -1.4166    3.3112   -0.0003 H   0  0  0  0  0  0  0  0  0  0  0  0
   -3.8079    2.7684    0.0004 H   0  0  0  0  0  0  0  0  0  0  0  0
   -6.2101    2.1817    0.0005 H   0  0  0  0  0  0  0  0  0  0  0  0
   -7.9369    0.4750    0.0002 H   0  0  0  0  0  0  0  0  0  0  0  0
   -7.3785   -1.9068   -0.0003 H   0  0  0  0  0  0  0  0  0  0  0  0
   -5.0725   -2.6678    0.0003 H   0  0  0  0  0  0  0  0  0  0  0  0
   -2.6578   -2.1252    0.0007 H   0  0  0  0  0  0  0  0  0  0  0  0
    2.6594    2.1260    0.0012 H   0  0  0  0  0  0  0  0  0  0  0  0
    5.0749    2.6667    0.0022 H   0  0  0  0  0  0  0  0  0  0  0  0
    7.3800    1.9038    0.0004 H   0  0  0  0  0  0  0  0  0  0  0  0
    7.9368   -0.4783   -0.0022 H   0  0  0  0  0  0  0  0  0  0  0  0
  1  2  2  0  0  0  0
  2  3  1  0  0  0  0
  3  4  2  0  0  0  0
  4  5  1  0  0  0  0
  5  6  2  0  0  0  0
  6  7  1  0  0  0  0
  7  8  1  0  0  0  0
  8  9  2  0  0  0  0
  9 10  1  0  0  0  0
 10 11  2  0  0  0  0
 11 12  1  0  0  0  0
 12 13  2  0  0  0  0
 13 14  1  0  0  0  0
 14 15  2  0  0  0  0
 15 16  1  0  0  0  0
 16 17  2  0  0  0  0
 17 18  1  0  0  0  0
 13 18  1  0  0  0  0
 18 19  2  0  0  0  0
 19 20  1  0  0  0  0
  7 20  2  0  0  0  0
 11 20  1  0  0  0  0
  8 21  1  0  0  0  0
  4 21  1  0  0  0  0
 21 22  2  0  0  0  0
 22 23  1  0  0  0  0
  2 23  1  0  0  0  0
 23 24  2  0  0  0  0
 24 25  1  0  0  0  0
 25 26  2  0  0  0  0
  1 26  1  0  0  0  0
  1 27  1  0  0  0  0
  3 28  1  0  0  0  0
  5 29  1  0  0  0  0
  6 30  1  0  0  0  0
  9 31  1  0  0  0  0
 10 32  1  0  0  0  0
 12 33  1  0  0  0  0
 14 34  1  0  0  0  0
 15 35  1  0  0  0  0
 16 36  1  0  0  0  0
 17 37  1  0  0  0  0
 19 38  1  0  0  0  0
 22 39  1  0  0  0  0
 24 40  1  0  0  0  0
 25 41  1  0  0  0  0
 26 42  1  0  0  0  0
M  END
$$$$
