C24H14
APtclcactv01171906213D 0   0.00000     0.00000
 
 38 43  0  0  0  0  0  0  0  0999 V2000
   -1.0145   -2.4521    0.0001 C   0  0  0  0  0  0  0  0  0  0  0  0
   -0.0794   -3.4741   -0.0005 C   0  0  0  0  0  0  0  0  0  0  0  0
    1.2688   -3.2003   -0.0005 C   0  0  0  0  0  0  0  0  0  0  0  0
    1.7253   -1.8664   -0.0006 C   0  0  0  0  0  0  0  0  0  0  0  0
    3.0978   -1.5938   -0.0001 C   0  0  0  0  0  0  0  0  0  0  0  0
    3.5686   -0.2761    0.0003 C   0  0  0  0  0  0  0  0  0  0  0  0
    4.9521   -0.0059    0.0008 C   0  0  0  0  0  0  0  0  0  0  0  0
    5.3871    1.2845    0.0006 C   0  0  0  0  0  0  0  0  0  0  0  0
    4.4846    2.3443    0.0005 C   0  0  0  0  0  0  0  0  0  0  0  0
    3.1374    2.1182    0.0001 C   0  0  0  0  0  0  0  0  0  0  0  0
    2.6545    0.8083   -0.0003 C   0  0  0  0  0  0  0  0  0  0  0  0
    1.2114    0.5348   -0.0002 C   0  0  0  0  0  0  0  0  0  0  0  0
    0.3013    1.5895   -0.0007 C   0  0  0  0  0  0  0  0  0  0  0  0
   -1.0778    1.3567   -0.0006 C   0  0  0  0  0  0  0  0  0  0  0  0
   -2.1914    2.2172   -0.0010 C   0  0  0  0  0  0  0  0  0  0  0  0
   -3.3550    1.4539   -0.0004 C   0  0  0  0  0  0  0  0  0  0  0  0
   -4.7277    1.7857   -0.0004 C   0  0  0  0  0  0  0  0  0  0  0  0
   -5.6583    0.7967    0.0003 C   0  0  0  0  0  0  0  0  0  0  0  0
   -5.2952   -0.5502    0.0010 C   0  0  0  0  0  0  0  0  0  0  0  0
   -3.9913   -0.9375    0.0014 C   0  0  0  0  0  0  0  0  0  0  0  0
   -2.9760    0.0330    0.0003 C   0  0  0  0  0  0  0  0  0  0  0  0
   -1.5732   -0.0253    0.0001 C   0  0  0  0  0  0  0  0  0  0  0  0
   -0.6009   -1.1191    0.0001 C   0  0  0  0  0  0  0  0  0  0  0  0
    0.7781   -0.8101   -0.0006 C   0  0  0  0  0  0  0  0  0  0  0  0
   -2.0684   -2.6879   -0.0041 H   0  0  0  0  0  0  0  0  0  0  0  0
   -0.4137   -4.5011   -0.0005 H   0  0  0  0  0  0  0  0  0  0  0  0
    1.9815   -4.0117   -0.0002 H   0  0  0  0  0  0  0  0  0  0  0  0
    3.8033   -2.4115    0.0003 H   0  0  0  0  0  0  0  0  0  0  0  0
    5.6636   -0.8183    0.0016 H   0  0  0  0  0  0  0  0  0  0  0  0
    6.4476    1.4886    0.0010 H   0  0  0  0  0  0  0  0  0  0  0  0
    4.8545    3.3589    0.0011 H   0  0  0  0  0  0  0  0  0  0  0  0
    2.4484    2.9498    0.0003 H   0  0  0  0  0  0  0  0  0  0  0  0
    0.6673    2.6056   -0.0009 H   0  0  0  0  0  0  0  0  0  0  0  0
   -2.1496    3.2964   -0.0011 H   0  0  0  0  0  0  0  0  0  0  0  0
   -5.0358    2.8208   -0.0005 H   0  0  0  0  0  0  0  0  0  0  0  0
   -6.7058    1.0595    0.0007 H   0  0  0  0  0  0  0  0  0  0  0  0
   -6.0686   -1.3041    0.0015 H   0  0  0  0  0  0  0  0  0  0  0  0
   -3.7376   -1.9873    0.0023 H   0  0  0  0  0  0  0  0  0  0  0  0
  1  2  2  0  0  0  0
  2  3  1  0  0  0  0
  3  4  2  0  0  0  0
  4  5  1  0  0  0  0
  5  6  2  0  0  0  0
  6  7  1  0  0  0  0
  7  8  2  0  0  0  0
  8  9  1  0  0  0  0
  9 10  2  0  0  0  0
 10 11  1  0  0  0  0
  6 11  1  0  0  0  0
 11 12  2  0  0  0  0
 12 13  1  0  0  0  0
 13 14  2  0  0  0  0
 14 15  1  0  0  0  0
 15 16  2  0  0  0  0
 16 17  1  0  0  0  0
 17 18  2  0  0  0  0
 18 19  1  0  0  0  0
 19 20  2  0  0  0  0
 20 21  1  0  0  0  0
 16 21  1  0  0  0  0
 21 22  2  0  0  0  0
 14 22  1  0  0  0  0
 22 23  1  0  0  0  0
  1 23  1  0  0  0  0
 23 24  2  0  0  0  0
 12 24  1  0  0  0  0
  4 24  1  0  0  0  0
  1 25  1  0  0  0  0
  2 26  1  0  0  0  0
  3 27  1  0  0  0  0
  5 28  1  0  0  0  0
  7 29  1  0  0  0  0
  8 30  1  0  0  0  0
  9 31  1  0  0  0  0
 10 32  1  0  0  0  0
 13 33  1  0  0  0  0
 15 34  1  0  0  0  0
 17 35  1  0  0  0  0
 18 36  1  0  0  0  0
 19 37  1  0  0  0  0
 20 38  1  0  0  0  0
M  END
$$$$
