C34H18
APtclcactv01171906213D 0   0.00000     0.00000
 
 52 60  0  0  0  0  0  0  0  0999 V2000
   -5.7512   -2.0263    0.0034 C   0  0  0  0  0  0  0  0  0  0  0  0
   -7.1134   -1.9562    0.0024 C   0  0  0  0  0  0  0  0  0  0  0  0
   -7.7646   -0.7254    0.0001 C   0  0  0  0  0  0  0  0  0  0  0  0
   -7.0590    0.4383   -0.0018 C   0  0  0  0  0  0  0  0  0  0  0  0
   -5.6506    0.4049   -0.0009 C   0  0  0  0  0  0  0  0  0  0  0  0
   -4.9189    1.6043   -0.0024 C   0  0  0  0  0  0  0  0  0  0  0  0
   -3.5330    1.5892   -0.0020 C   0  0  0  0  0  0  0  0  0  0  0  0
   -2.7629    2.8061   -0.0035 C   0  0  0  0  0  0  0  0  0  0  0  0
   -1.4116    2.7561   -0.0028 C   0  0  0  0  0  0  0  0  0  0  0  0
   -0.7075    1.5326   -0.0009 C   0  0  0  0  0  0  0  0  0  0  0  0
   -1.4103    0.3059    0.0002 C   0  0  0  0  0  0  0  0  0  0  0  0
   -2.8185    0.3116    0.0004 C   0  0  0  0  0  0  0  0  0  0  0  0
   -3.5299   -0.9010    0.0001 C   0  0  0  0  0  0  0  0  0  0  0  0
   -2.8268   -2.1168   -0.0003 C   0  0  0  0  0  0  0  0  0  0  0  0
   -1.4653   -2.1296   -0.0001 C   0  0  0  0  0  0  0  0  0  0  0  0
   -0.7310   -0.9338    0.0008 C   0  0  0  0  0  0  0  0  0  0  0  0
    0.7307   -0.9333    0.0007 C   0  0  0  0  0  0  0  0  0  0  0  0
    1.4103    0.3059    0.0013 C   0  0  0  0  0  0  0  0  0  0  0  0
    2.8182    0.3114    0.0011 C   0  0  0  0  0  0  0  0  0  0  0  0
    3.5300   -0.9011   -0.0002 C   0  0  0  0  0  0  0  0  0  0  0  0
    4.9924   -0.8509   -0.0004 C   0  0  0  0  0  0  0  0  0  0  0  0
    5.7513   -2.0262   -0.0021 C   0  0  0  0  0  0  0  0  0  0  0  0
    7.1137   -1.9559   -0.0027 C   0  0  0  0  0  0  0  0  0  0  0  0
    7.7647   -0.7252   -0.0017 C   0  0  0  0  0  0  0  0  0  0  0  0
    7.0591    0.4385    0.0005 C   0  0  0  0  0  0  0  0  0  0  0  0
    5.6502    0.4048    0.0007 C   0  0  0  0  0  0  0  0  0  0  0  0
    4.9190    1.6040    0.0034 C   0  0  0  0  0  0  0  0  0  0  0  0
    3.5329    1.5890    0.0017 C   0  0  0  0  0  0  0  0  0  0  0  0
    2.7630    2.8059    0.0039 C   0  0  0  0  0  0  0  0  0  0  0  0
    1.4117    2.7560    0.0021 C   0  0  0  0  0  0  0  0  0  0  0  0
    0.7077    1.5322   -0.0007 C   0  0  0  0  0  0  0  0  0  0  0  0
    2.8266   -2.1171   -0.0016 C   0  0  0  0  0  0  0  0  0  0  0  0
    1.4654   -2.1299   -0.0005 C   0  0  0  0  0  0  0  0  0  0  0  0
   -4.9926   -0.8508    0.0019 C   0  0  0  0  0  0  0  0  0  0  0  0
   -5.2591   -2.9876    0.0097 H   0  0  0  0  0  0  0  0  0  0  0  0
   -7.6942   -2.8667    0.0032 H   0  0  0  0  0  0  0  0  0  0  0  0
   -8.8442   -0.6939   -0.0006 H   0  0  0  0  0  0  0  0  0  0  0  0
   -7.5777    1.3856   -0.0044 H   0  0  0  0  0  0  0  0  0  0  0  0
   -5.4424    2.5489   -0.0042 H   0  0  0  0  0  0  0  0  0  0  0  0
   -3.2662    3.7616   -0.0057 H   0  0  0  0  0  0  0  0  0  0  0  0
   -0.8538    3.6809   -0.0039 H   0  0  0  0  0  0  0  0  0  0  0  0
   -3.3708   -3.0498   -0.0005 H   0  0  0  0  0  0  0  0  0  0  0  0
   -0.9425   -3.0746    0.0003 H   0  0  0  0  0  0  0  0  0  0  0  0
    5.2594   -2.9876   -0.0026 H   0  0  0  0  0  0  0  0  0  0  0  0
    7.6946   -2.8664   -0.0037 H   0  0  0  0  0  0  0  0  0  0  0  0
    8.8443   -0.6935   -0.0022 H   0  0  0  0  0  0  0  0  0  0  0  0
    7.5777    1.3858    0.0020 H   0  0  0  0  0  0  0  0  0  0  0  0
    5.4426    2.5486    0.0053 H   0  0  0  0  0  0  0  0  0  0  0  0
    3.2665    3.7614    0.0074 H   0  0  0  0  0  0  0  0  0  0  0  0
    0.8538    3.6808    0.0042 H   0  0  0  0  0  0  0  0  0  0  0  0
    3.3706   -3.0500   -0.0026 H   0  0  0  0  0  0  0  0  0  0  0  0
    0.9425   -3.0749   -0.0014 H   0  0  0  0  0  0  0  0  0  0  0  0
  1  2  2  0  0  0  0
  2  3  1  0  0  0  0
  3  4  2  0  0  0  0
  4  5  1  0  0  0  0
  5  6  1  0  0  0  0
  6  7  2  0  0  0  0
  7  8  1  0  0  0  0
  8  9  2  0  0  0  0
  9 10  1  0  0  0  0
 10 11  2  0  0  0  0
 11 12  1  0  0  0  0
  7 12  1  0  0  0  0
 12 13  2  0  0  0  0
 13 14  1  0  0  0  0
 14 15  2  0  0  0  0
 15 16  1  0  0  0  0
 11 16  1  0  0  0  0
 16 17  2  0  0  0  0
 17 18  1  0  0  0  0
 18 19  2  0  0  0  0
 19 20  1  0  0  0  0
 20 21  2  0  0  0  0
 21 22  1  0  0  0  0
 22 23  2  0  0  0  0
 23 24  1  0  0  0  0
 24 25  2  0  0  0  0
 25 26  1  0  0  0  0
 21 26  1  0  0  0  0
 26 27  2  0  0  0  0
 27 28  1  0  0  0  0
 19 28  1  0  0  0  0
 28 29  2  0  0  0  0
 29 30  1  0  0  0  0
 30 31  2  0  0  0  0
 10 31  1  0  0  0  0
 18 31  1  0  0  0  0
 20 32  1  0  0  0  0
 32 33  2  0  0  0  0
 17 33  1  0  0  0  0
 13 34  1  0  0  0  0
  1 34  1  0  0  0  0
  5 34  2  0  0  0  0
  1 35  1  0  0  0  0
  2 36  1  0  0  0  0
  3 37  1  0  0  0  0
  4 38  1  0  0  0  0
  6 39  1  0  0  0  0
  8 40  1  0  0  0  0
  9 41  1  0  0  0  0
 14 42  1  0  0  0  0
 15 43  1  0  0  0  0
 22 44  1  0  0  0  0
 23 45  1  0  0  0  0
 24 46  1  0  0  0  0
 25 47  1  0  0  0  0
 27 48  1  0  0  0  0
 29 49  1  0  0  0  0
 30 50  1  0  0  0  0
 32 51  1  0  0  0  0
 33 52  1  0  0  0  0
M  END
$$$$
