C32H16
APtclcactv01171906213D 0   0.00000     0.00000
 
 48 56  0  0  0  0  0  0  0  0999 V2000
   -2.5142   -3.3779    0.0004 C   0  0  0  0  0  0  0  0  0  0  0  0
   -3.8799   -3.5848    0.0014 C   0  0  0  0  0  0  0  0  0  0  0  0
   -4.7605   -2.5221    0.0015 C   0  0  0  0  0  0  0  0  0  0  0  0
   -4.2821   -1.2085    0.0007 C   0  0  0  0  0  0  0  0  0  0  0  0
   -2.8860   -0.9820   -0.0002 C   0  0  0  0  0  0  0  0  0  0  0  0
   -2.3942    0.3414   -0.0009 C   0  0  0  0  0  0  0  0  0  0  0  0
   -1.0125    0.5973   -0.0012 C   0  0  0  0  0  0  0  0  0  0  0  0
   -0.5441    1.9269   -0.0008 C   0  0  0  0  0  0  0  0  0  0  0  0
    0.8431    2.2031   -0.0006 C   0  0  0  0  0  0  0  0  0  0  0  0
    1.8141    1.0913   -0.0009 C   0  0  0  0  0  0  0  0  0  0  0  0
    3.1702    1.3274   -0.0003 C   0  0  0  0  0  0  0  0  0  0  0  0
    4.0913    0.2608   -0.0001 C   0  0  0  0  0  0  0  0  0  0  0  0
    5.4728    0.5237    0.0007 C   0  0  0  0  0  0  0  0  0  0  0  0
    6.3602   -0.5101    0.0013 C   0  0  0  0  0  0  0  0  0  0  0  0
    5.9189   -1.8289    0.0012 C   0  0  0  0  0  0  0  0  0  0  0  0
    4.5850   -2.1194    0.0004 C   0  0  0  0  0  0  0  0  0  0  0  0
    3.6468   -1.0834   -0.0002 C   0  0  0  0  0  0  0  0  0  0  0  0
    2.2095   -1.3677   -0.0010 C   0  0  0  0  0  0  0  0  0  0  0  0
    1.3131   -0.2832   -0.0015 C   0  0  0  0  0  0  0  0  0  0  0  0
   -0.0739   -0.5240   -0.0016 C   0  0  0  0  0  0  0  0  0  0  0  0
   -0.5486   -1.8479   -0.0012 C   0  0  0  0  0  0  0  0  0  0  0  0
   -1.9996   -2.0821   -0.0005 C   0  0  0  0  0  0  0  0  0  0  0  0
    0.3663   -2.9099    0.0000 C   0  0  0  0  0  0  0  0  0  0  0  0
    1.7095   -2.6773   -0.0009 C   0  0  0  0  0  0  0  0  0  0  0  0
    1.2796    3.5199    0.0004 C   0  0  0  0  0  0  0  0  0  0  0  0
    0.3651    4.5645    0.0011 C   0  0  0  0  0  0  0  0  0  0  0  0
   -0.9767    4.3259    0.0013 C   0  0  0  0  0  0  0  0  0  0  0  0
   -1.4652    3.0052   -0.0001 C   0  0  0  0  0  0  0  0  0  0  0  0
   -2.8480    2.7644    0.0001 C   0  0  0  0  0  0  0  0  0  0  0  0
   -3.3336    1.4643   -0.0007 C   0  0  0  0  0  0  0  0  0  0  0  0
   -4.7697    1.1906   -0.0000 C   0  0  0  0  0  0  0  0  0  0  0  0
   -5.2135   -0.0837    0.0003 C   0  0  0  0  0  0  0  0  0  0  0  0
   -1.8421   -4.2233    0.0048 H   0  0  0  0  0  0  0  0  0  0  0  0
   -4.2646   -4.5940    0.0017 H   0  0  0  0  0  0  0  0  0  0  0  0
   -5.8247   -2.7063    0.0019 H   0  0  0  0  0  0  0  0  0  0  0  0
    3.5334    2.3444   -0.0002 H   0  0  0  0  0  0  0  0  0  0  0  0
    5.8296    1.5431    0.0005 H   0  0  0  0  0  0  0  0  0  0  0  0
    7.4201   -0.3027    0.0016 H   0  0  0  0  0  0  0  0  0  0  0  0
    6.6401   -2.6328    0.0013 H   0  0  0  0  0  0  0  0  0  0  0  0
    4.2553   -3.1479    0.0006 H   0  0  0  0  0  0  0  0  0  0  0  0
    0.0020   -3.9266    0.0002 H   0  0  0  0  0  0  0  0  0  0  0  0
    2.3960   -3.5111    0.0000 H   0  0  0  0  0  0  0  0  0  0  0  0
    2.3382    3.7339    0.0010 H   0  0  0  0  0  0  0  0  0  0  0  0
    0.7232    5.5834    0.0019 H   0  0  0  0  0  0  0  0  0  0  0  0
   -1.6694    5.1546    0.0023 H   0  0  0  0  0  0  0  0  0  0  0  0
   -3.5378    3.5954    0.0013 H   0  0  0  0  0  0  0  0  0  0  0  0
   -5.4753    2.0082    0.0007 H   0  0  0  0  0  0  0  0  0  0  0  0
   -6.2764   -0.2752    0.0008 H   0  0  0  0  0  0  0  0  0  0  0  0
  1  2  2  0  0  0  0
  2  3  1  0  0  0  0
  3  4  2  0  0  0  0
  4  5  1  0  0  0  0
  5  6  1  0  0  0  0
  6  7  2  0  0  0  0
  7  8  1  0  0  0  0
  8  9  2  0  0  0  0
  9 10  1  0  0  0  0
 10 11  2  0  0  0  0
 11 12  1  0  0  0  0
 12 13  2  0  0  0  0
 13 14  1  0  0  0  0
 14 15  2  0  0  0  0
 15 16  1  0  0  0  0
 16 17  2  0  0  0  0
 12 17  1  0  0  0  0
 17 18  1  0  0  0  0
 18 19  2  0  0  0  0
 10 19  1  0  0  0  0
 19 20  1  0  0  0  0
  7 20  1  0  0  0  0
 20 21  2  0  0  0  0
 21 22  1  0  0  0  0
  1 22  1  0  0  0  0
  5 22  2  0  0  0  0
 21 23  1  0  0  0  0
 23 24  2  0  0  0  0
 18 24  1  0  0  0  0
  9 25  1  0  0  0  0
 25 26  2  0  0  0  0
 26 27  1  0  0  0  0
 27 28  2  0  0  0  0
  8 28  1  0  0  0  0
 28 29  1  0  0  0  0
 29 30  2  0  0  0  0
  6 30  1  0  0  0  0
 30 31  1  0  0  0  0
 31 32  2  0  0  0  0
  4 32  1  0  0  0  0
  1 33  1  0  0  0  0
  2 34  1  0  0  0  0
  3 35  1  0  0  0  0
 11 36  1  0  0  0  0
 13 37  1  0  0  0  0
 14 38  1  0  0  0  0
 15 39  1  0  0  0  0
 16 40  1  0  0  0  0
 23 41  1  0  0  0  0
 24 42  1  0  0  0  0
 25 43  1  0  0  0  0
 26 44  1  0  0  0  0
 27 45  1  0  0  0  0
 29 46  1  0  0  0  0
 31 47  1  0  0  0  0
 32 48  1  0  0  0  0
M  END
$$$$
