C30H16
APtclcactv01171906213D 0   0.00000     0.00000
 
 46 53  0  0  0  0  0  0  0  0999 V2000
    5.3959   -1.9051   -0.0041 C   0  0  0  0  0  0  0  0  0  0  0  0
    4.0673   -1.4383   -0.0022 C   0  0  0  0  0  0  0  0  0  0  0  0
    2.9952   -2.3452   -0.0009 C   0  0  0  0  0  0  0  0  0  0  0  0
    1.6844   -1.8786    0.0004 C   0  0  0  0  0  0  0  0  0  0  0  0
    0.5696   -2.7491    0.0017 C   0  0  0  0  0  0  0  0  0  0  0  0
   -0.6903   -2.2472    0.0027 C   0  0  0  0  0  0  0  0  0  0  0  0
   -0.9408   -0.8629    0.0025 C   0  0  0  0  0  0  0  0  0  0  0  0
   -2.3099   -0.3377    0.0019 C   0  0  0  0  0  0  0  0  0  0  0  0
   -3.3953   -1.2034    0.0016 C   0  0  0  0  0  0  0  0  0  0  0  0
   -4.6923   -0.6887    0.0005 C   0  0  0  0  0  0  0  0  0  0  0  0
   -5.8152   -1.5416   -0.0003 C   0  0  0  0  0  0  0  0  0  0  0  0
   -7.0635   -1.0063   -0.0018 C   0  0  0  0  0  0  0  0  0  0  0  0
   -7.2692    0.3735   -0.0026 C   0  0  0  0  0  0  0  0  0  0  0  0
   -6.2327    1.2502   -0.0024 C   0  0  0  0  0  0  0  0  0  0  0  0
   -4.9077    0.7621   -0.0004 C   0  0  0  0  0  0  0  0  0  0  0  0
   -3.8203    1.6312   -0.0005 C   0  0  0  0  0  0  0  0  0  0  0  0
   -2.5178    1.1155    0.0009 C   0  0  0  0  0  0  0  0  0  0  0  0
   -1.4188    1.9893    0.0002 C   0  0  0  0  0  0  0  0  0  0  0  0
   -0.1146    1.5000    0.0010 C   0  0  0  0  0  0  0  0  0  0  0  0
    0.9818    2.3891   -0.0001 C   0  0  0  0  0  0  0  0  0  0  0  0
    2.2805    1.9060    0.0004 C   0  0  0  0  0  0  0  0  0  0  0  0
    3.4316    2.8091   -0.0008 C   0  0  0  0  0  0  0  0  0  0  0  0
    4.6846    2.3050    0.0001 C   0  0  0  0  0  0  0  0  0  0  0  0
    4.9246    0.8643    0.0022 C   0  0  0  0  0  0  0  0  0  0  0  0
    3.8348   -0.0389   -0.0012 C   0  0  0  0  0  0  0  0  0  0  0  0
    2.5235    0.4605    0.0026 C   0  0  0  0  0  0  0  0  0  0  0  0
    1.4428   -0.4349    0.0008 C   0  0  0  0  0  0  0  0  0  0  0  0
    0.1248    0.0532    0.0019 C   0  0  0  0  0  0  0  0  0  0  0  0
    6.2242    0.3561    0.0025 C   0  0  0  0  0  0  0  0  0  0  0  0
    6.4417   -1.0123   -0.0050 C   0  0  0  0  0  0  0  0  0  0  0  0
    5.5939   -2.9668   -0.0004 H   0  0  0  0  0  0  0  0  0  0  0  0
    3.1887   -3.4078   -0.0012 H   0  0  0  0  0  0  0  0  0  0  0  0
    0.7223   -3.8183    0.0015 H   0  0  0  0  0  0  0  0  0  0  0  0
   -1.5264   -2.9308    0.0033 H   0  0  0  0  0  0  0  0  0  0  0  0
   -3.2363   -2.2717    0.0020 H   0  0  0  0  0  0  0  0  0  0  0  0
   -5.6835   -2.6135   -0.0000 H   0  0  0  0  0  0  0  0  0  0  0  0
   -7.9187   -1.6658   -0.0028 H   0  0  0  0  0  0  0  0  0  0  0  0
   -8.2799    0.7544   -0.0039 H   0  0  0  0  0  0  0  0  0  0  0  0
   -6.4203    2.3138   -0.0037 H   0  0  0  0  0  0  0  0  0  0  0  0
   -3.9803    2.6993   -0.0022 H   0  0  0  0  0  0  0  0  0  0  0  0
   -1.5870    3.0561   -0.0014 H   0  0  0  0  0  0  0  0  0  0  0  0
    0.8070    3.4548   -0.0016 H   0  0  0  0  0  0  0  0  0  0  0  0
    3.2794    3.8783   -0.0027 H   0  0  0  0  0  0  0  0  0  0  0  0
    5.5266    2.9814   -0.0012 H   0  0  0  0  0  0  0  0  0  0  0  0
    7.0655    1.0333    0.0011 H   0  0  0  0  0  0  0  0  0  0  0  0
    7.4550   -1.3860   -0.0045 H   0  0  0  0  0  0  0  0  0  0  0  0
  1  2  2  0  0  0  0
  2  3  1  0  0  0  0
  3  4  2  0  0  0  0
  4  5  1  0  0  0  0
  5  6  2  0  0  0  0
  6  7  1  0  0  0  0
  7  8  2  0  0  0  0
  8  9  1  0  0  0  0
  9 10  2  0  0  0  0
 10 11  1  0  0  0  0
 11 12  2  0  0  0  0
 12 13  1  0  0  0  0
 13 14  2  0  0  0  0
 14 15  1  0  0  0  0
 10 15  1  0  0  0  0
 15 16  2  0  0  0  0
 16 17  1  0  0  0  0
  8 17  1  0  0  0  0
 17 18  2  0  0  0  0
 18 19  1  0  0  0  0
 19 20  2  0  0  0  0
 20 21  1  0  0  0  0
 21 22  2  0  0  0  0
 22 23  1  0  0  0  0
 23 24  2  0  0  0  0
 24 25  1  0  0  0  0
  2 25  1  0  0  0  0
 25 26  2  0  0  0  0
 21 26  1  0  0  0  0
 26 27  1  0  0  0  0
  4 27  1  0  0  0  0
 27 28  2  0  0  0  0
  7 28  1  0  0  0  0
 19 28  1  0  0  0  0
 24 29  1  0  0  0  0
 29 30  2  0  0  0  0
  1 30  1  0  0  0  0
  1 31  1  0  0  0  0
  3 32  1  0  0  0  0
  5 33  1  0  0  0  0
  6 34  1  0  0  0  0
  9 35  1  0  0  0  0
 11 36  1  0  0  0  0
 12 37  1  0  0  0  0
 13 38  1  0  0  0  0
 14 39  1  0  0  0  0
 16 40  1  0  0  0  0
 18 41  1  0  0  0  0
 20 42  1  0  0  0  0
 22 43  1  0  0  0  0
 23 44  1  0  0  0  0
 29 45  1  0  0  0  0
 30 46  1  0  0  0  0
M  END
$$$$
