C30H16
APtclcactv01171906213D 0   0.00000     0.00000
 
 46 53  0  0  0  0  0  0  0  0999 V2000
    3.2528   -3.2724   -0.0015 C   0  0  0  0  0  0  0  0  0  0  0  0
    2.0582   -2.5260   -0.0005 C   0  0  0  0  0  0  0  0  0  0  0  0
    0.8180   -3.1855    0.0003 C   0  0  0  0  0  0  0  0  0  0  0  0
   -0.3623   -2.4530    0.0007 C   0  0  0  0  0  0  0  0  0  0  0  0
   -1.6371   -3.0690    0.0014 C   0  0  0  0  0  0  0  0  0  0  0  0
   -2.7637   -2.3166    0.0021 C   0  0  0  0  0  0  0  0  0  0  0  0
   -2.7175   -0.9085    0.0020 C   0  0  0  0  0  0  0  0  0  0  0  0
   -1.4790   -0.2408    0.0015 C   0  0  0  0  0  0  0  0  0  0  0  0
   -0.2908   -0.9909    0.0007 C   0  0  0  0  0  0  0  0  0  0  0  0
    0.9530   -0.3400    0.0006 C   0  0  0  0  0  0  0  0  0  0  0  0
    2.1326   -1.1089    0.0001 C   0  0  0  0  0  0  0  0  0  0  0  0
    3.3955   -0.4758   -0.0006 C   0  0  0  0  0  0  0  0  0  0  0  0
    3.4917    0.9954    0.0002 C   0  0  0  0  0  0  0  0  0  0  0  0
    2.3254    1.7832    0.0013 C   0  0  0  0  0  0  0  0  0  0  0  0
    1.0058    1.1235    0.0004 C   0  0  0  0  0  0  0  0  0  0  0  0
   -0.1583    1.8634    0.0013 C   0  0  0  0  0  0  0  0  0  0  0  0
   -1.4169    1.2223    0.0006 C   0  0  0  0  0  0  0  0  0  0  0  0
   -2.6000    1.9570    0.0005 C   0  0  0  0  0  0  0  0  0  0  0  0
   -3.8440    1.3131   -0.0010 C   0  0  0  0  0  0  0  0  0  0  0  0
   -5.0327    2.0734   -0.0012 C   0  0  0  0  0  0  0  0  0  0  0  0
   -6.2383    1.4451   -0.0022 C   0  0  0  0  0  0  0  0  0  0  0  0
   -6.3228    0.0541   -0.0026 C   0  0  0  0  0  0  0  0  0  0  0  0
   -5.1973   -0.7138   -0.0021 C   0  0  0  0  0  0  0  0  0  0  0  0
   -3.9363   -0.1030    0.0021 C   0  0  0  0  0  0  0  0  0  0  0  0
    2.4278    3.1731    0.0012 C   0  0  0  0  0  0  0  0  0  0  0  0
    3.6707    3.7692    0.0002 C   0  0  0  0  0  0  0  0  0  0  0  0
    4.8211    2.9949   -0.0013 C   0  0  0  0  0  0  0  0  0  0  0  0
    4.7401    1.6195   -0.0004 C   0  0  0  0  0  0  0  0  0  0  0  0
    4.5463   -1.2540   -0.0016 C   0  0  0  0  0  0  0  0  0  0  0  0
    4.4595   -2.6390   -0.0019 C   0  0  0  0  0  0  0  0  0  0  0  0
    3.2122   -4.3517    0.0025 H   0  0  0  0  0  0  0  0  0  0  0  0
    0.7820   -4.2649    0.0002 H   0  0  0  0  0  0  0  0  0  0  0  0
   -1.7119   -4.1464    0.0011 H   0  0  0  0  0  0  0  0  0  0  0  0
   -3.7243   -2.8101    0.0023 H   0  0  0  0  0  0  0  0  0  0  0  0
   -0.1070    2.9422    0.0030 H   0  0  0  0  0  0  0  0  0  0  0  0
   -2.5578    3.0362    0.0021 H   0  0  0  0  0  0  0  0  0  0  0  0
   -4.9849    3.1524   -0.0001 H   0  0  0  0  0  0  0  0  0  0  0  0
   -7.1444    2.0329   -0.0023 H   0  0  0  0  0  0  0  0  0  0  0  0
   -7.2926   -0.4212   -0.0031 H   0  0  0  0  0  0  0  0  0  0  0  0
   -5.2769   -1.7908   -0.0018 H   0  0  0  0  0  0  0  0  0  0  0  0
    1.5355    3.7816    0.0017 H   0  0  0  0  0  0  0  0  0  0  0  0
    3.7490    4.8464    0.0002 H   0  0  0  0  0  0  0  0  0  0  0  0
    5.7889    3.4742   -0.0029 H   0  0  0  0  0  0  0  0  0  0  0  0
    5.6417    1.0250   -0.0013 H   0  0  0  0  0  0  0  0  0  0  0  0
    5.5156   -0.7777   -0.0022 H   0  0  0  0  0  0  0  0  0  0  0  0
    5.3659   -3.2263   -0.0020 H   0  0  0  0  0  0  0  0  0  0  0  0
  1  2  2  0  0  0  0
  2  3  1  0  0  0  0
  3  4  2  0  0  0  0
  4  5  1  0  0  0  0
  5  6  2  0  0  0  0
  6  7  1  0  0  0  0
  7  8  1  0  0  0  0
  8  9  2  0  0  0  0
  4  9  1  0  0  0  0
  9 10  1  0  0  0  0
 10 11  2  0  0  0  0
  2 11  1  0  0  0  0
 11 12  1  0  0  0  0
 12 13  2  0  0  0  0
 13 14  1  0  0  0  0
 14 15  2  0  0  0  0
 10 15  1  0  0  0  0
 15 16  1  0  0  0  0
 16 17  2  0  0  0  0
  8 17  1  0  0  0  0
 17 18  1  0  0  0  0
 18 19  2  0  0  0  0
 19 20  1  0  0  0  0
 20 21  2  0  0  0  0
 21 22  1  0  0  0  0
 22 23  2  0  0  0  0
 23 24  1  0  0  0  0
  7 24  2  0  0  0  0
 19 24  1  0  0  0  0
 14 25  1  0  0  0  0
 25 26  2  0  0  0  0
 26 27  1  0  0  0  0
 27 28  2  0  0  0  0
 13 28  1  0  0  0  0
 12 29  1  0  0  0  0
 29 30  2  0  0  0  0
  1 30  1  0  0  0  0
  1 31  1  0  0  0  0
  3 32  1  0  0  0  0
  5 33  1  0  0  0  0
  6 34  1  0  0  0  0
 16 35  1  0  0  0  0
 18 36  1  0  0  0  0
 20 37  1  0  0  0  0
 21 38  1  0  0  0  0
 22 39  1  0  0  0  0
 23 40  1  0  0  0  0
 25 41  1  0  0  0  0
 26 42  1  0  0  0  0
 27 43  1  0  0  0  0
 28 44  1  0  0  0  0
 29 45  1  0  0  0  0
 30 46  1  0  0  0  0
M  END
$$$$
