C32H16
APtclcactv01171906213D 0   0.00000     0.00000
 
 48 56  0  0  0  0  0  0  0  0999 V2000
    1.1341   -3.9104    0.1338 C   0  0  0  0  0  0  0  0  0  0  0  0
   -0.1755   -3.4058   -0.0099 C   0  0  0  0  0  0  0  0  0  0  0  0
   -0.3879   -2.0087   -0.0239 C   0  0  0  0  0  0  0  0  0  0  0  0
   -1.6978   -1.4809   -0.1190 C   0  0  0  0  0  0  0  0  0  0  0  0
   -1.9040   -0.0312   -0.0051 C   0  0  0  0  0  0  0  0  0  0  0  0
   -0.7852    0.8275   -0.0169 C   0  0  0  0  0  0  0  0  0  0  0  0
    0.5243    0.2986    0.0054 C   0  0  0  0  0  0  0  0  0  0  0  0
    1.6368    1.1563    0.0016 C   0  0  0  0  0  0  0  0  0  0  0  0
    1.4380    2.6076   -0.0296 C   0  0  0  0  0  0  0  0  0  0  0  0
    2.6051    3.4894   -0.0171 C   0  0  0  0  0  0  0  0  0  0  0  0
    3.8469    2.9637    0.0003 C   0  0  0  0  0  0  0  0  0  0  0  0
    4.0532    1.5180    0.0084 C   0  0  0  0  0  0  0  0  0  0  0  0
    5.3486    0.9940   -0.0011 C   0  0  0  0  0  0  0  0  0  0  0  0
    5.5479   -0.3723    0.0121 C   0  0  0  0  0  0  0  0  0  0  0  0
    4.4800   -1.2469    0.0401 C   0  0  0  0  0  0  0  0  0  0  0  0
    3.1710   -0.7618    0.0494 C   0  0  0  0  0  0  0  0  0  0  0  0
    2.0268   -1.6801    0.0844 C   0  0  0  0  0  0  0  0  0  0  0  0
    2.2012   -3.0708    0.1743 C   0  0  0  0  0  0  0  0  0  0  0  0
    0.7258   -1.1474    0.0256 C   0  0  0  0  0  0  0  0  0  0  0  0
    2.9482    0.6346    0.0220 C   0  0  0  0  0  0  0  0  0  0  0  0
    0.1564    3.1328   -0.0720 C   0  0  0  0  0  0  0  0  0  0  0  0
   -0.9636    2.2814   -0.0741 C   0  0  0  0  0  0  0  0  0  0  0  0
   -2.2490    2.8227   -0.1586 C   0  0  0  0  0  0  0  0  0  0  0  0
   -3.3582    1.9825   -0.0708 C   0  0  0  0  0  0  0  0  0  0  0  0
   -4.6650    2.4994   -0.1937 C   0  0  0  0  0  0  0  0  0  0  0  0
   -5.7307    1.6879    0.0324 C   0  0  0  0  0  0  0  0  0  0  0  0
   -5.5572    0.3541    0.3942 C   0  0  0  0  0  0  0  0  0  0  0  0
   -4.3197   -0.2064    0.4893 C   0  0  0  0  0  0  0  0  0  0  0  0
   -3.1834    0.5428    0.1533 C   0  0  0  0  0  0  0  0  0  0  0  0
   -2.7477   -2.3681   -0.3325 C   0  0  0  0  0  0  0  0  0  0  0  0
   -2.5323   -3.7378   -0.3351 C   0  0  0  0  0  0  0  0  0  0  0  0
   -1.2739   -4.2650   -0.1583 C   0  0  0  0  0  0  0  0  0  0  0  0
    1.2904   -4.9763    0.2080 H   0  0  0  0  0  0  0  0  0  0  0  0
    2.4728    4.5611   -0.0185 H   0  0  0  0  0  0  0  0  0  0  0  0
    4.7028    3.6220    0.0091 H   0  0  0  0  0  0  0  0  0  0  0  0
    6.1981    1.6608   -0.0203 H   0  0  0  0  0  0  0  0  0  0  0  0
    6.5542   -0.7638   -0.0017 H   0  0  0  0  0  0  0  0  0  0  0  0
    4.6630   -2.3108    0.0519 H   0  0  0  0  0  0  0  0  0  0  0  0
    3.1935   -3.4822    0.2779 H   0  0  0  0  0  0  0  0  0  0  0  0
    0.0159    4.2033   -0.1013 H   0  0  0  0  0  0  0  0  0  0  0  0
   -2.3816    3.8862   -0.2880 H   0  0  0  0  0  0  0  0  0  0  0  0
   -4.8180    3.5333   -0.4666 H   0  0  0  0  0  0  0  0  0  0  0  0
   -6.7299    2.0829   -0.0731 H   0  0  0  0  0  0  0  0  0  0  0  0
   -6.4256   -0.2526    0.6030 H   0  0  0  0  0  0  0  0  0  0  0  0
   -4.2262   -1.2116    0.8732 H   0  0  0  0  0  0  0  0  0  0  0  0
   -3.7393   -2.0030   -0.5513 H   0  0  0  0  0  0  0  0  0  0  0  0
   -3.3710   -4.4033   -0.4768 H   0  0  0  0  0  0  0  0  0  0  0  0
   -1.1320   -5.3348   -0.1316 H   0  0  0  0  0  0  0  0  0  0  0  0
  1  2  2  0  0  0  0
  2  3  1  0  0  0  0
  3  4  1  0  0  0  0
  4  5  1  0  0  0  0
  5  6  1  0  0  0  0
  6  7  2  0  0  0  0
  7  8  1  0  0  0  0
  8  9  1  0  0  0  0
  9 10  2  0  0  0  0
 10 11  1  0  0  0  0
 11 12  2  0  0  0  0
 12 13  1  0  0  0  0
 13 14  2  0  0  0  0
 14 15  1  0  0  0  0
 15 16  2  0  0  0  0
 16 17  1  0  0  0  0
 17 18  2  0  0  0  0
  1 18  1  0  0  0  0
 17 19  1  0  0  0  0
  3 19  2  0  0  0  0
  7 19  1  0  0  0  0
 16 20  1  0  0  0  0
 12 20  1  0  0  0  0
  8 20  2  0  0  0  0
  9 21  1  0  0  0  0
 21 22  2  0  0  0  0
  6 22  1  0  0  0  0
 22 23  1  0  0  0  0
 23 24  2  0  0  0  0
 24 25  1  0  0  0  0
 25 26  2  0  0  0  0
 26 27  1  0  0  0  0
 27 28  2  0  0  0  0
 28 29  1  0  0  0  0
 24 29  1  0  0  0  0
  5 29  2  0  0  0  0
  4 30  2  0  0  0  0
 30 31  1  0  0  0  0
 31 32  2  0  0  0  0
  2 32  1  0  0  0  0
  1 33  1  0  0  0  0
 10 34  1  0  0  0  0
 11 35  1  0  0  0  0
 13 36  1  0  0  0  0
 14 37  1  0  0  0  0
 15 38  1  0  0  0  0
 18 39  1  0  0  0  0
 21 40  1  0  0  0  0
 23 41  1  0  0  0  0
 25 42  1  0  0  0  0
 26 43  1  0  0  0  0
 27 44  1  0  0  0  0
 28 45  1  0  0  0  0
 30 46  1  0  0  0  0
 31 47  1  0  0  0  0
 32 48  1  0  0  0  0
M  END
$$$$
