C30H16
APtclcactv01171906213D 0   0.00000     0.00000
 
 46 53  0  0  0  0  0  0  0  0999 V2000
   -2.5341   -3.4783    0.0021 C   0  0  0  0  0  0  0  0  0  0  0  0
   -3.9009   -3.6484    0.0027 C   0  0  0  0  0  0  0  0  0  0  0  0
   -4.7619   -2.5652    0.0014 C   0  0  0  0  0  0  0  0  0  0  0  0
   -4.2574   -1.2633    0.0001 C   0  0  0  0  0  0  0  0  0  0  0  0
   -2.8559   -1.0713    0.0001 C   0  0  0  0  0  0  0  0  0  0  0  0
   -2.3333    0.2335   -0.0008 C   0  0  0  0  0  0  0  0  0  0  0  0
   -0.9429    0.4333   -0.0006 C   0  0  0  0  0  0  0  0  0  0  0  0
   -0.4265    1.7445   -0.0002 C   0  0  0  0  0  0  0  0  0  0  0  0
    0.9683    1.9626    0.0007 C   0  0  0  0  0  0  0  0  0  0  0  0
    1.9046    0.8207    0.0000 C   0  0  0  0  0  0  0  0  0  0  0  0
    3.2696    1.0498    0.0004 C   0  0  0  0  0  0  0  0  0  0  0  0
    4.1600   -0.0327   -0.0003 C   0  0  0  0  0  0  0  0  0  0  0  0
    5.5515    0.1768    0.0004 C   0  0  0  0  0  0  0  0  0  0  0  0
    6.3945   -0.8912    0.0004 C   0  0  0  0  0  0  0  0  0  0  0  0
    5.9019   -2.1952   -0.0005 C   0  0  0  0  0  0  0  0  0  0  0  0
    4.5631   -2.4385   -0.0013 C   0  0  0  0  0  0  0  0  0  0  0  0
    3.6587   -1.3610   -0.0012 C   0  0  0  0  0  0  0  0  0  0  0  0
    2.2743   -1.5827   -0.0016 C   0  0  0  0  0  0  0  0  0  0  0  0
    1.4065   -0.5072   -0.0005 C   0  0  0  0  0  0  0  0  0  0  0  0
   -0.0533   -0.7277   -0.0002 C   0  0  0  0  0  0  0  0  0  0  0  0
   -0.5870   -1.9992   -0.0004 C   0  0  0  0  0  0  0  0  0  0  0  0
   -1.9843   -2.1866    0.0007 C   0  0  0  0  0  0  0  0  0  0  0  0
    1.4533    3.2642    0.0019 C   0  0  0  0  0  0  0  0  0  0  0  0
    0.5783    4.3409    0.0023 C   0  0  0  0  0  0  0  0  0  0  0  0
   -0.7723    4.1547    0.0012 C   0  0  0  0  0  0  0  0  0  0  0  0
   -1.3097    2.8539   -0.0003 C   0  0  0  0  0  0  0  0  0  0  0  0
   -2.7031    2.6654   -0.0015 C   0  0  0  0  0  0  0  0  0  0  0  0
   -3.2364    1.3860   -0.0016 C   0  0  0  0  0  0  0  0  0  0  0  0
   -4.6794    1.1510   -0.0024 C   0  0  0  0  0  0  0  0  0  0  0  0
   -5.1571   -0.1125   -0.0019 C   0  0  0  0  0  0  0  0  0  0  0  0
   -1.8839   -4.3407    0.0072 H   0  0  0  0  0  0  0  0  0  0  0  0
   -4.3091   -4.6483    0.0038 H   0  0  0  0  0  0  0  0  0  0  0  0
   -5.8296   -2.7277    0.0011 H   0  0  0  0  0  0  0  0  0  0  0  0
    3.6481    2.0613    0.0008 H   0  0  0  0  0  0  0  0  0  0  0  0
    5.9486    1.1811    0.0007 H   0  0  0  0  0  0  0  0  0  0  0  0
    7.4618   -0.7261    0.0006 H   0  0  0  0  0  0  0  0  0  0  0  0
    6.5933   -3.0249   -0.0008 H   0  0  0  0  0  0  0  0  0  0  0  0
    4.1965   -3.4544   -0.0023 H   0  0  0  0  0  0  0  0  0  0  0  0
    1.8872   -2.5910   -0.0025 H   0  0  0  0  0  0  0  0  0  0  0  0
    0.0695   -2.8568   -0.0018 H   0  0  0  0  0  0  0  0  0  0  0  0
    2.5190    3.4393    0.0028 H   0  0  0  0  0  0  0  0  0  0  0  0
    0.9746    5.3456    0.0040 H   0  0  0  0  0  0  0  0  0  0  0  0
   -1.4328    5.0092    0.0015 H   0  0  0  0  0  0  0  0  0  0  0  0
   -3.3611    3.5218   -0.0012 H   0  0  0  0  0  0  0  0  0  0  0  0
   -5.3631    1.9871   -0.0034 H   0  0  0  0  0  0  0  0  0  0  0  0
   -6.2248   -0.2750   -0.0024 H   0  0  0  0  0  0  0  0  0  0  0  0
  1  2  2  0  0  0  0
  2  3  1  0  0  0  0
  3  4  2  0  0  0  0
  4  5  1  0  0  0  0
  5  6  1  0  0  0  0
  6  7  2  0  0  0  0
  7  8  1  0  0  0  0
  8  9  2  0  0  0  0
  9 10  1  0  0  0  0
 10 11  2  0  0  0  0
 11 12  1  0  0  0  0
 12 13  2  0  0  0  0
 13 14  1  0  0  0  0
 14 15  2  0  0  0  0
 15 16  1  0  0  0  0
 16 17  2  0  0  0  0
 12 17  1  0  0  0  0
 17 18  1  0  0  0  0
 18 19  2  0  0  0  0
 10 19  1  0  0  0  0
 19 20  1  0  0  0  0
  7 20  1  0  0  0  0
 20 21  2  0  0  0  0
 21 22  1  0  0  0  0
  1 22  1  0  0  0  0
  5 22  2  0  0  0  0
  9 23  1  0  0  0  0
 23 24  2  0  0  0  0
 24 25  1  0  0  0  0
 25 26  2  0  0  0  0
  8 26  1  0  0  0  0
 26 27  1  0  0  0  0
 27 28  2  0  0  0  0
  6 28  1  0  0  0  0
 28 29  1  0  0  0  0
 29 30  2  0  0  0  0
  4 30  1  0  0  0  0
  1 31  1  0  0  0  0
  2 32  1  0  0  0  0
  3 33  1  0  0  0  0
 11 34  1  0  0  0  0
 13 35  1  0  0  0  0
 14 36  1  0  0  0  0
 15 37  1  0  0  0  0
 16 38  1  0  0  0  0
 18 39  1  0  0  0  0
 21 40  1  0  0  0  0
 23 41  1  0  0  0  0
 24 42  1  0  0  0  0
 25 43  1  0  0  0  0
 27 44  1  0  0  0  0
 29 45  1  0  0  0  0
 30 46  1  0  0  0  0
M  END
$$$$
