C22H12
APtclcactv01171906213D 0   0.00000     0.00000
 
 34 39  0  0  0  0  0  0  0  0999 V2000
    4.2279   -0.4931   -0.0008 C   0  0  0  0  0  0  0  0  0  0  0  0
    4.4921    0.8662   -0.0012 C   0  0  0  0  0  0  0  0  0  0  0  0
    3.4776    1.7960   -0.0010 C   0  0  0  0  0  0  0  0  0  0  0  0
    1.0904    2.3190    0.0002 C   0  0  0  0  0  0  0  0  0  0  0  0
   -1.3468    2.8440    0.0006 C   0  0  0  0  0  0  0  0  0  0  0  0
   -2.6180    2.3859    0.0007 C   0  0  0  0  0  0  0  0  0  0  0  0
    2.6178   -2.3860    0.0011 C   0  0  0  0  0  0  0  0  0  0  0  0
    1.3466   -2.8439    0.0020 C   0  0  0  0  0  0  0  0  0  0  0  0
   -1.0903   -2.3189    0.0002 C   0  0  0  0  0  0  0  0  0  0  0  0
   -4.2280    0.4928    0.0002 C   0  0  0  0  0  0  0  0  0  0  0  0
   -4.4921   -0.8665   -0.0009 C   0  0  0  0  0  0  0  0  0  0  0  0
   -3.4774   -1.7961   -0.0019 C   0  0  0  0  0  0  0  0  0  0  0  0
    2.9109   -0.9550   -0.0001 C   0  0  0  0  0  0  0  0  0  0  0  0
    2.1353    1.3768    0.0000 C   0  0  0  0  0  0  0  0  0  0  0  0
   -0.2313    1.8989    0.0009 C   0  0  0  0  0  0  0  0  0  0  0  0
   -2.9111    0.9550    0.0007 C   0  0  0  0  0  0  0  0  0  0  0  0
    0.2313   -1.8987    0.0006 C   0  0  0  0  0  0  0  0  0  0  0  0
   -2.1352   -1.3767   -0.0014 C   0  0  0  0  0  0  0  0  0  0  0  0
    1.8552   -0.0125    0.0000 C   0  0  0  0  0  0  0  0  0  0  0  0
   -0.5267    0.4646    0.0004 C   0  0  0  0  0  0  0  0  0  0  0  0
    0.5267   -0.4643    0.0005 C   0  0  0  0  0  0  0  0  0  0  0  0
   -1.8552    0.0126    0.0000 C   0  0  0  0  0  0  0  0  0  0  0  0
    5.0450   -1.1993   -0.0055 H   0  0  0  0  0  0  0  0  0  0  0  0
    5.5178    1.2044   -0.0014 H   0  0  0  0  0  0  0  0  0  0  0  0
    3.7128    2.8500   -0.0013 H   0  0  0  0  0  0  0  0  0  0  0  0
    1.3187    3.3746    0.0002 H   0  0  0  0  0  0  0  0  0  0  0  0
   -1.1550    3.9068   -0.0002 H   0  0  0  0  0  0  0  0  0  0  0  0
   -3.4345    3.0928    0.0007 H   0  0  0  0  0  0  0  0  0  0  0  0
    3.4344   -3.0929    0.0015 H   0  0  0  0  0  0  0  0  0  0  0  0
    1.1547   -3.9067    0.0028 H   0  0  0  0  0  0  0  0  0  0  0  0
   -1.3186   -3.3745   -0.0000 H   0  0  0  0  0  0  0  0  0  0  0  0
   -5.0452    1.1989    0.0003 H   0  0  0  0  0  0  0  0  0  0  0  0
   -5.5177   -1.2049   -0.0016 H   0  0  0  0  0  0  0  0  0  0  0  0
   -3.7124   -2.8502   -0.0030 H   0  0  0  0  0  0  0  0  0  0  0  0
  1 13  2  0  0  0  0
  1  2  1  0  0  0  0
 13 19  1  0  0  0  0
  7 13  1  0  0  0  0
  2  3  2  0  0  0  0
  3 14  1  0  0  0  0
  4 14  1  0  0  0  0
 14 19  2  0  0  0  0
  4 15  2  0  0  0  0
 19 21  1  0  0  0  0
 15 20  1  0  0  0  0
  5 15  1  0  0  0  0
 20 21  2  0  0  0  0
 20 22  1  0  0  0  0
  5  6  2  0  0  0  0
  6 16  1  0  0  0  0
 16 22  1  0  0  0  0
 10 16  2  0  0  0  0
  7  8  2  0  0  0  0
 17 21  1  0  0  0  0
  8 17  1  0  0  0  0
  9 17  2  0  0  0  0
 18 22  2  0  0  0  0
  9 18  1  0  0  0  0
 12 18  1  0  0  0  0
 10 11  1  0  0  0  0
 11 12  2  0  0  0  0
  1 23  1  0  0  0  0
  2 24  1  0  0  0  0
  3 25  1  0  0  0  0
  4 26  1  0  0  0  0
  5 27  1  0  0  0  0
  6 28  1  0  0  0  0
  7 29  1  0  0  0  0
  8 30  1  0  0  0  0
  9 31  1  0  0  0  0
 10 32  1  0  0  0  0
 11 33  1  0  0  0  0
 12 34  1  0  0  0  0
M  END
$$$$
