C30H18
APtclcactv01171906213D 0   0.00000     0.00000
 
 48 54  0  0  0  0  0  0  0  0999 V2000
   -5.7227   -2.6467   -0.0015 C   0  0  0  0  0  0  0  0  0  0  0  0
   -7.0787   -2.5798   -0.0008 C   0  0  0  0  0  0  0  0  0  0  0  0
   -7.7525   -1.3580    0.0009 C   0  0  0  0  0  0  0  0  0  0  0  0
   -7.0858   -0.1753    0.0020 C   0  0  0  0  0  0  0  0  0  0  0  0
   -5.6741   -0.1704    0.0016 C   0  0  0  0  0  0  0  0  0  0  0  0
   -4.9575    1.0236    0.0020 C   0  0  0  0  0  0  0  0  0  0  0  0
   -3.5597    0.9945    0.0011 C   0  0  0  0  0  0  0  0  0  0  0  0
   -2.8260    2.1932    0.0009 C   0  0  0  0  0  0  0  0  0  0  0  0
   -1.4403    2.1572   -0.0004 C   0  0  0  0  0  0  0  0  0  0  0  0
   -0.7378    0.8706   -0.0016 C   0  0  0  0  0  0  0  0  0  0  0  0
    0.7374    0.8702   -0.0021 C   0  0  0  0  0  0  0  0  0  0  0  0
    1.4437   -0.3142   -0.0022 C   0  0  0  0  0  0  0  0  0  0  0  0
    2.8512   -0.2925   -0.0015 C   0  0  0  0  0  0  0  0  0  0  0  0
    3.5736   -1.4881   -0.0010 C   0  0  0  0  0  0  0  0  0  0  0  0
    4.9659   -1.4556    0.0001 C   0  0  0  0  0  0  0  0  0  0  0  0
    5.7236   -2.6464    0.0001 C   0  0  0  0  0  0  0  0  0  0  0  0
    7.0794   -2.5788    0.0008 C   0  0  0  0  0  0  0  0  0  0  0  0
    7.7529   -1.3568    0.0016 C   0  0  0  0  0  0  0  0  0  0  0  0
    7.0856   -0.1747    0.0022 C   0  0  0  0  0  0  0  0  0  0  0  0
    5.6740   -0.1707    0.0010 C   0  0  0  0  0  0  0  0  0  0  0  0
    4.9571    1.0230    0.0009 C   0  0  0  0  0  0  0  0  0  0  0  0
    3.5593    0.9937   -0.0007 C   0  0  0  0  0  0  0  0  0  0  0  0
    2.8259    2.1927   -0.0003 C   0  0  0  0  0  0  0  0  0  0  0  0
    1.4402    2.1568   -0.0014 C   0  0  0  0  0  0  0  0  0  0  0  0
    0.6714    3.4023   -0.0007 C   0  0  0  0  0  0  0  0  0  0  0  0
   -0.6713    3.4025   -0.0000 C   0  0  0  0  0  0  0  0  0  0  0  0
   -1.4442   -0.3136   -0.0019 C   0  0  0  0  0  0  0  0  0  0  0  0
   -2.8516   -0.2916   -0.0003 C   0  0  0  0  0  0  0  0  0  0  0  0
   -3.5734   -1.4874    0.0004 C   0  0  0  0  0  0  0  0  0  0  0  0
   -4.9658   -1.4553   -0.0002 C   0  0  0  0  0  0  0  0  0  0  0  0
   -5.2261   -3.6058    0.0015 H   0  0  0  0  0  0  0  0  0  0  0  0
   -7.6506   -3.4960   -0.0020 H   0  0  0  0  0  0  0  0  0  0  0  0
   -8.8325   -1.3530    0.0011 H   0  0  0  0  0  0  0  0  0  0  0  0
   -7.6322    0.7563    0.0028 H   0  0  0  0  0  0  0  0  0  0  0  0
   -5.4797    1.9689    0.0028 H   0  0  0  0  0  0  0  0  0  0  0  0
   -3.3416    3.1422    0.0014 H   0  0  0  0  0  0  0  0  0  0  0  0
    0.9176   -1.2574   -0.0025 H   0  0  0  0  0  0  0  0  0  0  0  0
    3.0539   -2.4349   -0.0011 H   0  0  0  0  0  0  0  0  0  0  0  0
    5.2276   -3.6058   -0.0002 H   0  0  0  0  0  0  0  0  0  0  0  0
    7.6516   -3.4948    0.0010 H   0  0  0  0  0  0  0  0  0  0  0  0
    8.8329   -1.3513    0.0022 H   0  0  0  0  0  0  0  0  0  0  0  0
    7.6315    0.7572    0.0032 H   0  0  0  0  0  0  0  0  0  0  0  0
    5.4791    1.9685    0.0023 H   0  0  0  0  0  0  0  0  0  0  0  0
    3.3418    3.1415    0.0014 H   0  0  0  0  0  0  0  0  0  0  0  0
    1.1977    4.3454    0.0006 H   0  0  0  0  0  0  0  0  0  0  0  0
   -1.1973    4.3457    0.0001 H   0  0  0  0  0  0  0  0  0  0  0  0
   -0.9183   -1.2569   -0.0032 H   0  0  0  0  0  0  0  0  0  0  0  0
   -3.0534   -2.4339   -0.0009 H   0  0  0  0  0  0  0  0  0  0  0  0
  1  2  2  0  0  0  0
  2  3  1  0  0  0  0
  3  4  2  0  0  0  0
  4  5  1  0  0  0  0
  5  6  1  0  0  0  0
  6  7  2  0  0  0  0
  7  8  1  0  0  0  0
  8  9  2  0  0  0  0
  9 10  1  0  0  0  0
 10 11  1  0  0  0  0
 11 12  2  0  0  0  0
 12 13  1  0  0  0  0
 13 14  2  0  0  0  0
 14 15  1  0  0  0  0
 15 16  2  0  0  0  0
 16 17  1  0  0  0  0
 17 18  2  0  0  0  0
 18 19  1  0  0  0  0
 19 20  2  0  0  0  0
 15 20  1  0  0  0  0
 20 21  1  0  0  0  0
 21 22  2  0  0  0  0
 13 22  1  0  0  0  0
 22 23  1  0  0  0  0
 23 24  2  0  0  0  0
 11 24  1  0  0  0  0
 24 25  1  0  0  0  0
 25 26  2  0  0  0  0
  9 26  1  0  0  0  0
 10 27  2  0  0  0  0
 27 28  1  0  0  0  0
  7 28  1  0  0  0  0
 28 29  2  0  0  0  0
 29 30  1  0  0  0  0
  1 30  1  0  0  0  0
  5 30  2  0  0  0  0
  1 31  1  0  0  0  0
  2 32  1  0  0  0  0
  3 33  1  0  0  0  0
  4 34  1  0  0  0  0
  6 35  1  0  0  0  0
  8 36  1  0  0  0  0
 12 37  1  0  0  0  0
 14 38  1  0  0  0  0
 16 39  1  0  0  0  0
 17 40  1  0  0  0  0
 18 41  1  0  0  0  0
 19 42  1  0  0  0  0
 21 43  1  0  0  0  0
 23 44  1  0  0  0  0
 25 45  1  0  0  0  0
 26 46  1  0  0  0  0
 27 47  1  0  0  0  0
 29 48  1  0  0  0  0
M  END
$$$$
