C32H16
APtclcactv01171906213D 0   0.00000     0.00000
 
 48 56  0  0  0  0  0  0  0  0999 V2000
   -4.3580   -2.3789    0.0006 C   0  0  0  0  0  0  0  0  0  0  0  0
   -5.3535   -1.4648    0.0007 C   0  0  0  0  0  0  0  0  0  0  0  0
   -5.0702   -0.0322    0.0001 C   0  0  0  0  0  0  0  0  0  0  0  0
   -6.1074    0.9035    0.0008 C   0  0  0  0  0  0  0  0  0  0  0  0
   -5.8255    2.2586    0.0006 C   0  0  0  0  0  0  0  0  0  0  0  0
   -4.5297    2.7240   -0.0002 C   0  0  0  0  0  0  0  0  0  0  0  0
   -3.4534    1.8187   -0.0004 C   0  0  0  0  0  0  0  0  0  0  0  0
   -2.1265    2.2837   -0.0008 C   0  0  0  0  0  0  0  0  0  0  0  0
   -1.0641    1.3843   -0.0008 C   0  0  0  0  0  0  0  0  0  0  0  0
    0.2808    1.8212   -0.0006 C   0  0  0  0  0  0  0  0  0  0  0  0
    1.3101    0.9057    0.0001 C   0  0  0  0  0  0  0  0  0  0  0  0
    2.7185    1.3488   -0.0000 C   0  0  0  0  0  0  0  0  0  0  0  0
    3.7522    0.3869    0.0004 C   0  0  0  0  0  0  0  0  0  0  0  0
    5.1002    0.8189    0.0008 C   0  0  0  0  0  0  0  0  0  0  0  0
    6.1320   -0.1362    0.0009 C   0  0  0  0  0  0  0  0  0  0  0  0
    5.8343   -1.4671    0.0004 C   0  0  0  0  0  0  0  0  0  0  0  0
    4.5180   -1.9079   -0.0002 C   0  0  0  0  0  0  0  0  0  0  0  0
    3.4691   -0.9968   -0.0002 C   0  0  0  0  0  0  0  0  0  0  0  0
    2.0733   -1.4688   -0.0013 C   0  0  0  0  0  0  0  0  0  0  0  0
    1.0270   -0.5332    0.0004 C   0  0  0  0  0  0  0  0  0  0  0  0
   -0.3072   -0.9906   -0.0005 C   0  0  0  0  0  0  0  0  0  0  0  0
   -1.3514   -0.0528   -0.0005 C   0  0  0  0  0  0  0  0  0  0  0  0
   -2.6818   -0.5021   -0.0012 C   0  0  0  0  0  0  0  0  0  0  0  0
   -3.7331    0.4286   -0.0002 C   0  0  0  0  0  0  0  0  0  0  0  0
   -2.9643   -1.9387    0.0004 C   0  0  0  0  0  0  0  0  0  0  0  0
   -1.9095   -2.8421    0.0031 C   0  0  0  0  0  0  0  0  0  0  0  0
   -0.5833   -2.3812   -0.0027 C   0  0  0  0  0  0  0  0  0  0  0  0
    0.4955   -3.2885    0.0001 C   0  0  0  0  0  0  0  0  0  0  0  0
    1.7799   -2.8394   -0.0025 C   0  0  0  0  0  0  0  0  0  0  0  0
    5.3838    2.1954    0.0008 C   0  0  0  0  0  0  0  0  0  0  0  0
    4.3675    3.1053    0.0008 C   0  0  0  0  0  0  0  0  0  0  0  0
    3.0397    2.6982   -0.0001 C   0  0  0  0  0  0  0  0  0  0  0  0
   -4.5921   -3.4332    0.0051 H   0  0  0  0  0  0  0  0  0  0  0  0
   -6.3799   -1.8009    0.0008 H   0  0  0  0  0  0  0  0  0  0  0  0
   -7.1340    0.5680    0.0010 H   0  0  0  0  0  0  0  0  0  0  0  0
   -6.6406    2.9671    0.0008 H   0  0  0  0  0  0  0  0  0  0  0  0
   -4.3393    3.7870   -0.0010 H   0  0  0  0  0  0  0  0  0  0  0  0
   -1.9303    3.3458   -0.0014 H   0  0  0  0  0  0  0  0  0  0  0  0
    0.5021    2.8783   -0.0013 H   0  0  0  0  0  0  0  0  0  0  0  0
    7.1632    0.1850    0.0009 H   0  0  0  0  0  0  0  0  0  0  0  0
    6.6363   -2.1905    0.0001 H   0  0  0  0  0  0  0  0  0  0  0  0
    4.3077   -2.9672   -0.0009 H   0  0  0  0  0  0  0  0  0  0  0  0
   -2.1102   -3.9033    0.0043 H   0  0  0  0  0  0  0  0  0  0  0  0
    0.3006   -4.3508    0.0068 H   0  0  0  0  0  0  0  0  0  0  0  0
    2.5899   -3.5537   -0.0006 H   0  0  0  0  0  0  0  0  0  0  0  0
    6.4094    2.5338    0.0011 H   0  0  0  0  0  0  0  0  0  0  0  0
    4.5993    4.1601    0.0011 H   0  0  0  0  0  0  0  0  0  0  0  0
    2.2521    3.4371   -0.0007 H   0  0  0  0  0  0  0  0  0  0  0  0
  1  2  2  0  0  0  0
  2  3  1  0  0  0  0
  3  4  1  0  0  0  0
  4  5  2  0  0  0  0
  5  6  1  0  0  0  0
  6  7  2  0  0  0  0
  7  8  1  0  0  0  0
  8  9  2  0  0  0  0
  9 10  1  0  0  0  0
 10 11  2  0  0  0  0
 11 12  1  0  0  0  0
 12 13  2  0  0  0  0
 13 14  1  0  0  0  0
 14 15  1  0  0  0  0
 15 16  2  0  0  0  0
 16 17  1  0  0  0  0
 17 18  2  0  0  0  0
 13 18  1  0  0  0  0
 18 19  1  0  0  0  0
 19 20  2  0  0  0  0
 11 20  1  0  0  0  0
 20 21  1  0  0  0  0
 21 22  1  0  0  0  0
  9 22  1  0  0  0  0
 22 23  2  0  0  0  0
 23 24  1  0  0  0  0
  3 24  2  0  0  0  0
  7 24  1  0  0  0  0
 23 25  1  0  0  0  0
  1 25  1  0  0  0  0
 25 26  2  0  0  0  0
 26 27  1  0  0  0  0
 21 27  2  0  0  0  0
 27 28  1  0  0  0  0
 28 29  2  0  0  0  0
 19 29  1  0  0  0  0
 14 30  2  0  0  0  0
 30 31  1  0  0  0  0
 31 32  2  0  0  0  0
 12 32  1  0  0  0  0
  1 33  1  0  0  0  0
  2 34  1  0  0  0  0
  4 35  1  0  0  0  0
  5 36  1  0  0  0  0
  6 37  1  0  0  0  0
  8 38  1  0  0  0  0
 10 39  1  0  0  0  0
 15 40  1  0  0  0  0
 16 41  1  0  0  0  0
 17 42  1  0  0  0  0
 26 43  1  0  0  0  0
 28 44  1  0  0  0  0
 29 45  1  0  0  0  0
 30 46  1  0  0  0  0
 31 47  1  0  0  0  0
 32 48  1  0  0  0  0
M  END
$$$$
