C26H16
APtclcactv01171906223D 0   0.00000     0.00000
 
 42 47  0  0  0  0  0  0  0  0999 V2000
   -4.2481   -1.8990   -0.0004 C   0  0  0  0  0  0  0  0  0  0  0  0
   -5.5425   -2.3693   -0.0005 C   0  0  0  0  0  0  0  0  0  0  0  0
   -6.6135   -1.4856    0.0003 C   0  0  0  0  0  0  0  0  0  0  0  0
   -6.4072   -0.1362    0.0013 C   0  0  0  0  0  0  0  0  0  0  0  0
   -5.1015    0.3732    0.0009 C   0  0  0  0  0  0  0  0  0  0  0  0
   -4.0129   -0.5237    0.0006 C   0  0  0  0  0  0  0  0  0  0  0  0
   -2.6418    0.0094    0.0003 C   0  0  0  0  0  0  0  0  0  0  0  0
   -1.5513   -0.8369   -0.0005 C   0  0  0  0  0  0  0  0  0  0  0  0
   -0.2498   -0.3027   -0.0010 C   0  0  0  0  0  0  0  0  0  0  0  0
    0.8569   -1.1519   -0.0012 C   0  0  0  0  0  0  0  0  0  0  0  0
    2.1488   -0.6153   -0.0012 C   0  0  0  0  0  0  0  0  0  0  0  0
    3.2632   -1.4662   -0.0008 C   0  0  0  0  0  0  0  0  0  0  0  0
    4.5435   -0.9265   -0.0003 C   0  0  0  0  0  0  0  0  0  0  0  0
    5.6855   -1.7591    0.0007 C   0  0  0  0  0  0  0  0  0  0  0  0
    6.9215   -1.2003    0.0016 C   0  0  0  0  0  0  0  0  0  0  0  0
    7.1022    0.1846    0.0017 C   0  0  0  0  0  0  0  0  0  0  0  0
    6.0509    1.0416    0.0008 C   0  0  0  0  0  0  0  0  0  0  0  0
    4.7336    0.5297   -0.0002 C   0  0  0  0  0  0  0  0  0  0  0  0
    3.6346    1.3795   -0.0007 C   0  0  0  0  0  0  0  0  0  0  0  0
    2.3391    0.8426   -0.0011 C   0  0  0  0  0  0  0  0  0  0  0  0
    1.2283    1.6924   -0.0011 C   0  0  0  0  0  0  0  0  0  0  0  0
   -0.0599    1.1548   -0.0010 C   0  0  0  0  0  0  0  0  0  0  0  0
   -1.1790    2.0045   -0.0010 C   0  0  0  0  0  0  0  0  0  0  0  0
   -2.4554    1.4644    0.0003 C   0  0  0  0  0  0  0  0  0  0  0  0
   -3.6310    2.3344    0.0008 C   0  0  0  0  0  0  0  0  0  0  0  0
   -4.8726    1.8151    0.0009 C   0  0  0  0  0  0  0  0  0  0  0  0
   -3.4192   -2.5913    0.0033 H   0  0  0  0  0  0  0  0  0  0  0  0
   -5.7260   -3.4336   -0.0017 H   0  0  0  0  0  0  0  0  0  0  0  0
   -7.6225   -1.8707   -0.0001 H   0  0  0  0  0  0  0  0  0  0  0  0
   -7.2502    0.5389    0.0020 H   0  0  0  0  0  0  0  0  0  0  0  0
   -1.6969   -1.9071   -0.0002 H   0  0  0  0  0  0  0  0  0  0  0  0
    0.7164   -2.2227   -0.0009 H   0  0  0  0  0  0  0  0  0  0  0  0
    3.1269   -2.5375   -0.0005 H   0  0  0  0  0  0  0  0  0  0  0  0
    5.5749   -2.8334    0.0010 H   0  0  0  0  0  0  0  0  0  0  0  0
    7.7891   -1.8435    0.0027 H   0  0  0  0  0  0  0  0  0  0  0  0
    8.1058    0.5838    0.0028 H   0  0  0  0  0  0  0  0  0  0  0  0
    6.2193    2.1084    0.0005 H   0  0  0  0  0  0  0  0  0  0  0  0
    3.7774    2.4500   -0.0010 H   0  0  0  0  0  0  0  0  0  0  0  0
    1.3671    2.7635   -0.0008 H   0  0  0  0  0  0  0  0  0  0  0  0
   -1.0448    3.0761   -0.0008 H   0  0  0  0  0  0  0  0  0  0  0  0
   -3.5012    3.4066    0.0002 H   0  0  0  0  0  0  0  0  0  0  0  0
   -5.7218    2.4824    0.0009 H   0  0  0  0  0  0  0  0  0  0  0  0
  1  2  2  0  0  0  0
  2  3  1  0  0  0  0
  3  4  2  0  0  0  0
  4  5  1  0  0  0  0
  5  6  1  0  0  0  0
  1  6  1  0  0  0  0
  6  7  2  0  0  0  0
  7  8  1  0  0  0  0
  8  9  2  0  0  0  0
  9 10  1  0  0  0  0
 10 11  2  0  0  0  0
 11 12  1  0  0  0  0
 12 13  2  0  0  0  0
 13 14  1  0  0  0  0
 14 15  2  0  0  0  0
 15 16  1  0  0  0  0
 16 17  2  0  0  0  0
 17 18  1  0  0  0  0
 13 18  1  0  0  0  0
 18 19  2  0  0  0  0
 19 20  1  0  0  0  0
 11 20  1  0  0  0  0
 20 21  2  0  0  0  0
 21 22  1  0  0  0  0
  9 22  1  0  0  0  0
 22 23  2  0  0  0  0
 23 24  1  0  0  0  0
  7 24  1  0  0  0  0
 24 25  2  0  0  0  0
 25 26  1  0  0  0  0
  5 26  2  0  0  0  0
  1 27  1  0  0  0  0
  2 28  1  0  0  0  0
  3 29  1  0  0  0  0
  4 30  1  0  0  0  0
  8 31  1  0  0  0  0
 10 32  1  0  0  0  0
 12 33  1  0  0  0  0
 14 34  1  0  0  0  0
 15 35  1  0  0  0  0
 16 36  1  0  0  0  0
 17 37  1  0  0  0  0
 19 38  1  0  0  0  0
 21 39  1  0  0  0  0
 23 40  1  0  0  0  0
 25 41  1  0  0  0  0
 26 42  1  0  0  0  0
M  END
$$$$
