C15H10
APtclcactv01171906233D 0   0.00000     0.00000
 
 25 28  0  0  0  0  0  0  0  0999 V2000
    2.8251   -0.9718   -0.0004 C   0  0  0  0  0  0  0  0  0  0  0  0
    1.4334   -1.1160    0.0005 C   0  0  0  0  0  0  0  0  0  0  0  0
    0.7154    0.0821    0.0008 C   0  0  0  0  0  0  0  0  0  0  0  0
   -0.7154    0.0821    0.0007 C   0  0  0  0  0  0  0  0  0  0  0  0
   -1.4334   -1.1160   -0.0000 C   0  0  0  0  0  0  0  0  0  0  0  0
   -2.8251   -0.9718   -0.0010 C   0  0  0  0  0  0  0  0  0  0  0  0
   -3.3455    0.2981   -0.0008 C   0  0  0  0  0  0  0  0  0  0  0  0
   -2.5733    1.4618    0.0000 C   0  0  0  0  0  0  0  0  0  0  0  0
   -1.2150    1.3692    0.0006 C   0  0  0  0  0  0  0  0  0  0  0  0
   -0.0000    2.2724    0.0010 C   0  0  0  0  0  0  0  0  0  0  0  0
    1.2150    1.3692    0.0003 C   0  0  0  0  0  0  0  0  0  0  0  0
    2.5733    1.4618   -0.0013 C   0  0  0  0  0  0  0  0  0  0  0  0
    3.3455    0.2981   -0.0009 C   0  0  0  0  0  0  0  0  0  0  0  0
   -0.6826   -2.3131   -0.0001 C   0  0  0  0  0  0  0  0  0  0  0  0
    0.6826   -2.3131    0.0008 C   0  0  0  0  0  0  0  0  0  0  0  0
    3.4723   -1.8364    0.0037 H   0  0  0  0  0  0  0  0  0  0  0  0
   -3.4723   -1.8364   -0.0024 H   0  0  0  0  0  0  0  0  0  0  0  0
   -4.4203    0.4043   -0.0016 H   0  0  0  0  0  0  0  0  0  0  0  0
   -3.0513    2.4303   -0.0003 H   0  0  0  0  0  0  0  0  0  0  0  0
   -0.0001    2.8978   -0.8917 H   0  0  0  0  0  0  0  0  0  0  0  0
    0.0001    2.8969    0.8943 H   0  0  0  0  0  0  0  0  0  0  0  0
    3.0513    2.4303   -0.0024 H   0  0  0  0  0  0  0  0  0  0  0  0
    4.4203    0.4043   -0.0021 H   0  0  0  0  0  0  0  0  0  0  0  0
   -1.2054   -3.2581    0.0003 H   0  0  0  0  0  0  0  0  0  0  0  0
    1.2054   -3.2581    0.0006 H   0  0  0  0  0  0  0  0  0  0  0  0
  1  2  2  0  0  0  0
  2  3  1  0  0  0  0
  3  4  1  0  0  0  0
  4  5  1  0  0  0  0
  5  6  2  0  0  0  0
  6  7  1  0  0  0  0
  7  8  2  0  0  0  0
  8  9  1  0  0  0  0
  4  9  2  0  0  0  0
  9 10  1  0  0  0  0
 10 11  1  0  0  0  0
  3 11  2  0  0  0  0
 11 12  1  0  0  0  0
 12 13  2  0  0  0  0
  1 13  1  0  0  0  0
  5 14  1  0  0  0  0
 14 15  2  0  0  0  0
  2 15  1  0  0  0  0
  1 16  1  0  0  0  0
  6 17  1  0  0  0  0
  7 18  1  0  0  0  0
  8 19  1  0  0  0  0
 10 20  1  0  0  0  0
 10 21  1  0  0  0  0
 12 22  1  0  0  0  0
 13 23  1  0  0  0  0
 14 24  1  0  0  0  0
 15 25  1  0  0  0  0
M  END
$$$$
