C30H16
APtclcactv01171906233D 0   0.00000     0.00000
 
 46 53  0  0  0  0  0  0  0  0999 V2000
   -5.0951    1.6104   -0.0001 C   0  0  0  0  0  0  0  0  0  0  0  0
   -5.5851    0.3176   -0.0013 C   0  0  0  0  0  0  0  0  0  0  0  0
   -4.7401   -0.7715   -0.0023 C   0  0  0  0  0  0  0  0  0  0  0  0
   -3.3496   -0.5853   -0.0017 C   0  0  0  0  0  0  0  0  0  0  0  0
   -2.4742   -1.6912   -0.0017 C   0  0  0  0  0  0  0  0  0  0  0  0
   -1.1073   -1.5036   -0.0008 C   0  0  0  0  0  0  0  0  0  0  0  0
   -0.1781   -2.6491   -0.0003 C   0  0  0  0  0  0  0  0  0  0  0  0
    1.2107   -2.4260    0.0009 C   0  0  0  0  0  0  0  0  0  0  0  0
    1.7452   -1.0494    0.0007 C   0  0  0  0  0  0  0  0  0  0  0  0
    3.1059   -0.8308    0.0008 C   0  0  0  0  0  0  0  0  0  0  0  0
    3.6343    0.4746    0.0001 C   0  0  0  0  0  0  0  0  0  0  0  0
    5.0266    0.6751    0.0001 C   0  0  0  0  0  0  0  0  0  0  0  0
    5.5290    1.9417   -0.0010 C   0  0  0  0  0  0  0  0  0  0  0  0
    4.6830    3.0453   -0.0020 C   0  0  0  0  0  0  0  0  0  0  0  0
    3.3270    2.8855   -0.0021 C   0  0  0  0  0  0  0  0  0  0  0  0
    2.7788    1.6002   -0.0010 C   0  0  0  0  0  0  0  0  0  0  0  0
    1.3231    1.4055   -0.0006 C   0  0  0  0  0  0  0  0  0  0  0  0
    0.8208    0.0850   -0.0001 C   0  0  0  0  0  0  0  0  0  0  0  0
   -0.5665   -0.1440    0.0002 C   0  0  0  0  0  0  0  0  0  0  0  0
   -1.4486    0.9513    0.0010 C   0  0  0  0  0  0  0  0  0  0  0  0
   -2.8372    0.7346   -0.0006 C   0  0  0  0  0  0  0  0  0  0  0  0
   -3.7168    1.8417    0.0000 C   0  0  0  0  0  0  0  0  0  0  0  0
   -3.1854    3.2014    0.0029 C   0  0  0  0  0  0  0  0  0  0  0  0
   -1.8536    3.4343    0.0049 C   0  0  0  0  0  0  0  0  0  0  0  0
   -0.9174    2.3135    0.0013 C   0  0  0  0  0  0  0  0  0  0  0  0
    0.4607    2.5041   -0.0011 C   0  0  0  0  0  0  0  0  0  0  0  0
    2.0825   -3.5154    0.0019 C   0  0  0  0  0  0  0  0  0  0  0  0
    1.5802   -4.7986    0.0016 C   0  0  0  0  0  0  0  0  0  0  0  0
    0.2111   -5.0179    0.0004 C   0  0  0  0  0  0  0  0  0  0  0  0
   -0.6668   -3.9554   -0.0005 C   0  0  0  0  0  0  0  0  0  0  0  0
   -5.7804    2.4452   -0.0038 H   0  0  0  0  0  0  0  0  0  0  0  0
   -6.6532    0.1575   -0.0011 H   0  0  0  0  0  0  0  0  0  0  0  0
   -5.1496   -1.7709   -0.0032 H   0  0  0  0  0  0  0  0  0  0  0  0
   -2.8772   -2.6932   -0.0021 H   0  0  0  0  0  0  0  0  0  0  0  0
    3.7788   -1.6755    0.0018 H   0  0  0  0  0  0  0  0  0  0  0  0
    5.6956   -0.1727    0.0013 H   0  0  0  0  0  0  0  0  0  0  0  0
    6.5987    2.0904   -0.0006 H   0  0  0  0  0  0  0  0  0  0  0  0
    5.1034    4.0402   -0.0025 H   0  0  0  0  0  0  0  0  0  0  0  0
    2.6799    3.7502   -0.0033 H   0  0  0  0  0  0  0  0  0  0  0  0
   -3.8693    4.0373    0.0031 H   0  0  0  0  0  0  0  0  0  0  0  0
   -1.4823    4.4485    0.0071 H   0  0  0  0  0  0  0  0  0  0  0  0
    0.8652    3.5055   -0.0000 H   0  0  0  0  0  0  0  0  0  0  0  0
    3.1502   -3.3531    0.0025 H   0  0  0  0  0  0  0  0  0  0  0  0
    2.2578   -5.6396    0.0020 H   0  0  0  0  0  0  0  0  0  0  0  0
   -0.1701   -6.0284   -0.0002 H   0  0  0  0  0  0  0  0  0  0  0  0
   -1.7319   -4.1341   -0.0011 H   0  0  0  0  0  0  0  0  0  0  0  0
  1  2  2  0  0  0  0
  2  3  1  0  0  0  0
  3  4  2  0  0  0  0
  4  5  1  0  0  0  0
  5  6  2  0  0  0  0
  6  7  1  0  0  0  0
  7  8  2  0  0  0  0
  8  9  1  0  0  0  0
  9 10  1  0  0  0  0
 10 11  2  0  0  0  0
 11 12  1  0  0  0  0
 12 13  2  0  0  0  0
 13 14  1  0  0  0  0
 14 15  2  0  0  0  0
 15 16  1  0  0  0  0
 11 16  1  0  0  0  0
 16 17  2  0  0  0  0
 17 18  1  0  0  0  0
  9 18  2  0  0  0  0
 18 19  1  0  0  0  0
  6 19  1  0  0  0  0
 19 20  2  0  0  0  0
 20 21  1  0  0  0  0
  4 21  1  0  0  0  0
 21 22  2  0  0  0  0
  1 22  1  0  0  0  0
 22 23  1  0  0  0  0
 23 24  2  0  0  0  0
 24 25  1  0  0  0  0
 20 25  1  0  0  0  0
 25 26  2  0  0  0  0
 17 26  1  0  0  0  0
  8 27  1  0  0  0  0
 27 28  2  0  0  0  0
 28 29  1  0  0  0  0
 29 30  2  0  0  0  0
  7 30  1  0  0  0  0
  1 31  1  0  0  0  0
  2 32  1  0  0  0  0
  3 33  1  0  0  0  0
  5 34  1  0  0  0  0
 10 35  1  0  0  0  0
 12 36  1  0  0  0  0
 13 37  1  0  0  0  0
 14 38  1  0  0  0  0
 15 39  1  0  0  0  0
 23 40  1  0  0  0  0
 24 41  1  0  0  0  0
 26 42  1  0  0  0  0
 27 43  1  0  0  0  0
 28 44  1  0  0  0  0
 29 45  1  0  0  0  0
 30 46  1  0  0  0  0
M  END
$$$$
