C20H12
APtclcactv01171906243D 0   0.00000     0.00000
 
 32 36  0  0  0  0  0  0  0  0999 V2000
   -2.2617   -2.3346   -0.0108 C   0  0  0  0  0  0  0  0  0  0  0  0
   -3.5280   -1.8323   -0.0112 C   0  0  0  0  0  0  0  0  0  0  0  0
   -3.4523   -0.3720   -0.0036 C   0  0  0  0  0  0  0  0  0  0  0  0
   -4.3344    0.7019    0.0008 C   0  0  0  0  0  0  0  0  0  0  0  0
   -3.8390    2.0038    0.0076 C   0  0  0  0  0  0  0  0  0  0  0  0
   -2.5020    2.2971    0.0095 C   0  0  0  0  0  0  0  0  0  0  0  0
   -1.5712    1.2404    0.0042 C   0  0  0  0  0  0  0  0  0  0  0  0
   -0.1793    1.3948    0.0023 C   0  0  0  0  0  0  0  0  0  0  0  0
    0.6285    0.2577    0.0009 C   0  0  0  0  0  0  0  0  0  0  0  0
    2.0926    0.4031   -0.0018 C   0  0  0  0  0  0  0  0  0  0  0  0
    2.8956   -0.7578    0.0056 C   0  0  0  0  0  0  0  0  0  0  0  0
    2.2879   -2.0355    0.0106 C   0  0  0  0  0  0  0  0  0  0  0  0
    0.9453   -2.1737    0.0079 C   0  0  0  0  0  0  0  0  0  0  0  0
    0.0858   -1.0570    0.0016 C   0  0  0  0  0  0  0  0  0  0  0  0
   -1.3139   -1.2250   -0.0031 C   0  0  0  0  0  0  0  0  0  0  0  0
   -2.0829   -0.0615   -0.0004 C   0  0  0  0  0  0  0  0  0  0  0  0
    4.2914   -0.6260    0.0069 C   0  0  0  0  0  0  0  0  0  0  0  0
    4.8568    0.6158   -0.0020 C   0  0  0  0  0  0  0  0  0  0  0  0
    4.0673    1.7591   -0.0122 C   0  0  0  0  0  0  0  0  0  0  0  0
    2.6939    1.6619   -0.0126 C   0  0  0  0  0  0  0  0  0  0  0  0
   -2.0016   -3.3828   -0.0113 H   0  0  0  0  0  0  0  0  0  0  0  0
   -4.4368   -2.4157   -0.0166 H   0  0  0  0  0  0  0  0  0  0  0  0
   -5.4002    0.5277   -0.0013 H   0  0  0  0  0  0  0  0  0  0  0  0
   -4.5443    2.8217    0.0111 H   0  0  0  0  0  0  0  0  0  0  0  0
   -2.1659    3.3235    0.0146 H   0  0  0  0  0  0  0  0  0  0  0  0
    0.2623    2.3804    0.0016 H   0  0  0  0  0  0  0  0  0  0  0  0
    2.9108   -2.9178    0.0163 H   0  0  0  0  0  0  0  0  0  0  0  0
    0.5186   -3.1658    0.0098 H   0  0  0  0  0  0  0  0  0  0  0  0
    4.9179   -1.5056    0.0152 H   0  0  0  0  0  0  0  0  0  0  0  0
    5.9326    0.7113   -0.0007 H   0  0  0  0  0  0  0  0  0  0  0  0
    4.5351    2.7325   -0.0200 H   0  0  0  0  0  0  0  0  0  0  0  0
    2.0859    2.5545   -0.0201 H   0  0  0  0  0  0  0  0  0  0  0  0
  1  2  2  0  0  0  0
  2  3  1  0  0  0  0
  3  4  2  0  0  0  0
  4  5  1  0  0  0  0
  5  6  2  0  0  0  0
  6  7  1  0  0  0  0
  7  8  2  0  0  0  0
  8  9  1  0  0  0  0
  9 10  2  0  0  0  0
 10 11  1  0  0  0  0
 11 12  2  0  0  0  0
 12 13  1  0  0  0  0
 13 14  2  0  0  0  0
  9 14  1  0  0  0  0
 14 15  1  0  0  0  0
  1 15  1  0  0  0  0
 15 16  2  0  0  0  0
  3 16  1  0  0  0  0
  7 16  1  0  0  0  0
 11 17  1  0  0  0  0
 17 18  2  0  0  0  0
 18 19  1  0  0  0  0
 19 20  2  0  0  0  0
 10 20  1  0  0  0  0
  1 21  1  0  0  0  0
  2 22  1  0  0  0  0
  4 23  1  0  0  0  0
  5 24  1  0  0  0  0
  6 25  1  0  0  0  0
  8 26  1  0  0  0  0
 12 27  1  0  0  0  0
 13 28  1  0  0  0  0
 17 29  1  0  0  0  0
 18 30  1  0  0  0  0
 19 31  1  0  0  0  0
 20 32  1  0  0  0  0
M  END
$$$$
