C34H16
APtclcactv01171906233D 0   0.00000     0.00000
 
 50 59  0  0  0  0  0  0  0  0999 V2000
   -3.0561   -3.2646    0.0012 C   0  0  0  0  0  0  0  0  0  0  0  0
   -4.4367   -3.3341    0.0027 C   0  0  0  0  0  0  0  0  0  0  0  0
   -5.2044   -2.1879    0.0027 C   0  0  0  0  0  0  0  0  0  0  0  0
   -4.5936   -0.9304    0.0011 C   0  0  0  0  0  0  0  0  0  0  0  0
   -5.3979    0.2882    0.0015 C   0  0  0  0  0  0  0  0  0  0  0  0
   -4.8051    1.5019    0.0001 C   0  0  0  0  0  0  0  0  0  0  0  0
   -3.3471    1.6087   -0.0012 C   0  0  0  0  0  0  0  0  0  0  0  0
   -2.5631    0.4274   -0.0013 C   0  0  0  0  0  0  0  0  0  0  0  0
   -3.1818   -0.8430   -0.0004 C   0  0  0  0  0  0  0  0  0  0  0  0
   -2.4131   -2.0291   -0.0004 C   0  0  0  0  0  0  0  0  0  0  0  0
   -0.9444   -1.9488   -0.0012 C   0  0  0  0  0  0  0  0  0  0  0  0
   -0.1375   -3.0892   -0.0011 C   0  0  0  0  0  0  0  0  0  0  0  0
    1.2258   -2.9841   -0.0014 C   0  0  0  0  0  0  0  0  0  0  0  0
    1.8522   -1.7339   -0.0017 C   0  0  0  0  0  0  0  0  0  0  0  0
    3.3172   -1.6047   -0.0008 C   0  0  0  0  0  0  0  0  0  0  0  0
    3.9147   -0.3269   -0.0001 C   0  0  0  0  0  0  0  0  0  0  0  0
    3.0794    0.8837   -0.0003 C   0  0  0  0  0  0  0  0  0  0  0  0
    3.6494    2.1632    0.0013 C   0  0  0  0  0  0  0  0  0  0  0  0
    2.8684    3.2802    0.0021 C   0  0  0  0  0  0  0  0  0  0  0  0
    1.4678    3.1838    0.0013 C   0  0  0  0  0  0  0  0  0  0  0  0
    0.6482    4.3355    0.0020 C   0  0  0  0  0  0  0  0  0  0  0  0
   -0.7008    4.2334    0.0007 C   0  0  0  0  0  0  0  0  0  0  0  0
   -1.3378    2.9691   -0.0009 C   0  0  0  0  0  0  0  0  0  0  0  0
   -2.7300    2.8598   -0.0020 C   0  0  0  0  0  0  0  0  0  0  0  0
   -0.5430    1.7955   -0.0017 C   0  0  0  0  0  0  0  0  0  0  0  0
   -1.1595    0.5305   -0.0027 C   0  0  0  0  0  0  0  0  0  0  0  0
   -0.3399   -0.6781   -0.0016 C   0  0  0  0  0  0  0  0  0  0  0  0
    1.0637   -0.5693   -0.0018 C   0  0  0  0  0  0  0  0  0  0  0  0
    1.6794    0.7542   -0.0016 C   0  0  0  0  0  0  0  0  0  0  0  0
    0.8651    1.9061   -0.0008 C   0  0  0  0  0  0  0  0  0  0  0  0
    5.3088   -0.2213    0.0012 C   0  0  0  0  0  0  0  0  0  0  0  0
    6.0844   -1.3573    0.0018 C   0  0  0  0  0  0  0  0  0  0  0  0
    5.4954   -2.6147    0.0011 C   0  0  0  0  0  0  0  0  0  0  0  0
    4.1260   -2.7442   -0.0002 C   0  0  0  0  0  0  0  0  0  0  0  0
   -2.4727   -4.1735    0.0058 H   0  0  0  0  0  0  0  0  0  0  0  0
   -4.9212   -4.2993    0.0037 H   0  0  0  0  0  0  0  0  0  0  0  0
   -6.2818   -2.2624    0.0035 H   0  0  0  0  0  0  0  0  0  0  0  0
   -6.4756    0.2186    0.0025 H   0  0  0  0  0  0  0  0  0  0  0  0
   -5.4102    2.3964   -0.0003 H   0  0  0  0  0  0  0  0  0  0  0  0
   -0.5966   -4.0667   -0.0005 H   0  0  0  0  0  0  0  0  0  0  0  0
    1.8281   -3.8806   -0.0009 H   0  0  0  0  0  0  0  0  0  0  0  0
    4.7245    2.2663    0.0023 H   0  0  0  0  0  0  0  0  0  0  0  0
    3.3342    4.2545    0.0037 H   0  0  0  0  0  0  0  0  0  0  0  0
    1.1066    5.3133    0.0041 H   0  0  0  0  0  0  0  0  0  0  0  0
   -1.3015    5.1310    0.0014 H   0  0  0  0  0  0  0  0  0  0  0  0
   -3.3357    3.7539   -0.0013 H   0  0  0  0  0  0  0  0  0  0  0  0
    5.7766    0.7521    0.0013 H   0  0  0  0  0  0  0  0  0  0  0  0
    7.1609   -1.2704    0.0024 H   0  0  0  0  0  0  0  0  0  0  0  0
    6.1173   -3.4977    0.0012 H   0  0  0  0  0  0  0  0  0  0  0  0
    3.6761   -3.7261   -0.0007 H   0  0  0  0  0  0  0  0  0  0  0  0
  1  2  2  0  0  0  0
  2  3  1  0  0  0  0
  3  4  2  0  0  0  0
  4  5  1  0  0  0  0
  5  6  2  0  0  0  0
  6  7  1  0  0  0  0
  7  8  1  0  0  0  0
  8  9  1  0  0  0  0
  4  9  1  0  0  0  0
  9 10  2  0  0  0  0
  1 10  1  0  0  0  0
 10 11  1  0  0  0  0
 11 12  2  0  0  0  0
 12 13  1  0  0  0  0
 13 14  2  0  0  0  0
 14 15  1  0  0  0  0
 15 16  2  0  0  0  0
 16 17  1  0  0  0  0
 17 18  1  0  0  0  0
 18 19  2  0  0  0  0
 19 20  1  0  0  0  0
 20 21  2  0  0  0  0
 21 22  1  0  0  0  0
 22 23  2  0  0  0  0
 23 24  1  0  0  0  0
  7 24  2  0  0  0  0
 23 25  1  0  0  0  0
 25 26  1  0  0  0  0
  8 26  2  0  0  0  0
 26 27  1  0  0  0  0
 11 27  1  0  0  0  0
 27 28  2  0  0  0  0
 14 28  1  0  0  0  0
 28 29  1  0  0  0  0
 17 29  2  0  0  0  0
 29 30  1  0  0  0  0
 25 30  2  0  0  0  0
 20 30  1  0  0  0  0
 16 31  1  0  0  0  0
 31 32  2  0  0  0  0
 32 33  1  0  0  0  0
 33 34  2  0  0  0  0
 15 34  1  0  0  0  0
  1 35  1  0  0  0  0
  2 36  1  0  0  0  0
  3 37  1  0  0  0  0
  5 38  1  0  0  0  0
  6 39  1  0  0  0  0
 12 40  1  0  0  0  0
 13 41  1  0  0  0  0
 18 42  1  0  0  0  0
 19 43  1  0  0  0  0
 21 44  1  0  0  0  0
 22 45  1  0  0  0  0
 24 46  1  0  0  0  0
 31 47  1  0  0  0  0
 32 48  1  0  0  0  0
 33 49  1  0  0  0  0
 34 50  1  0  0  0  0
M  END
$$$$
