C24H14
APtclcactv01171906223D 0   0.00000     0.00000
 
 38 43  0  0  0  0  0  0  0  0999 V2000
    4.9983   -1.3946    0.0017 C   0  0  0  0  0  0  0  0  0  0  0  0
    3.6143   -1.1603   -0.0013 C   0  0  0  0  0  0  0  0  0  0  0  0
    2.6968   -2.2321   -0.0053 C   0  0  0  0  0  0  0  0  0  0  0  0
    1.3613   -2.0071   -0.0068 C   0  0  0  0  0  0  0  0  0  0  0  0
    0.8327   -0.7087   -0.0050 C   0  0  0  0  0  0  0  0  0  0  0  0
   -0.6171   -0.4832   -0.0028 C   0  0  0  0  0  0  0  0  0  0  0  0
   -1.5840   -1.4780   -0.0016 C   0  0  0  0  0  0  0  0  0  0  0  0
   -2.9430   -1.1073    0.0007 C   0  0  0  0  0  0  0  0  0  0  0  0
   -3.3496    0.2567    0.0019 C   0  0  0  0  0  0  0  0  0  0  0  0
   -2.3663    1.2742    0.0001 C   0  0  0  0  0  0  0  0  0  0  0  0
   -1.0435    0.8470   -0.0024 C   0  0  0  0  0  0  0  0  0  0  0  0
   -0.1489    1.9917   -0.0049 C   0  0  0  0  0  0  0  0  0  0  0  0
    1.2104    1.7363   -0.0066 C   0  0  0  0  0  0  0  0  0  0  0  0
    1.6920    0.4140   -0.0043 C   0  0  0  0  0  0  0  0  0  0  0  0
    3.1407    0.1715    0.0003 C   0  0  0  0  0  0  0  0  0  0  0  0
    4.0515    1.2307    0.0059 C   0  0  0  0  0  0  0  0  0  0  0  0
    5.3920    0.9691    0.0094 C   0  0  0  0  0  0  0  0  0  0  0  0
    5.8620   -0.3396    0.0072 C   0  0  0  0  0  0  0  0  0  0  0  0
   -1.0316    3.1584   -0.0039 C   0  0  0  0  0  0  0  0  0  0  0  0
   -2.3251    2.7310   -0.0008 C   0  0  0  0  0  0  0  0  0  0  0  0
   -4.7151    0.5711    0.0054 C   0  0  0  0  0  0  0  0  0  0  0  0
   -5.6416   -0.4272    0.0060 C   0  0  0  0  0  0  0  0  0  0  0  0
   -5.2497   -1.7651    0.0039 C   0  0  0  0  0  0  0  0  0  0  0  0
   -3.9352   -2.1100    0.0015 C   0  0  0  0  0  0  0  0  0  0  0  0
    5.3773   -2.4059    0.0041 H   0  0  0  0  0  0  0  0  0  0  0  0
    3.0651   -3.2474   -0.0077 H   0  0  0  0  0  0  0  0  0  0  0  0
    0.6860   -2.8499   -0.0098 H   0  0  0  0  0  0  0  0  0  0  0  0
   -1.2995   -2.5199   -0.0028 H   0  0  0  0  0  0  0  0  0  0  0  0
    1.9091    2.5598   -0.0097 H   0  0  0  0  0  0  0  0  0  0  0  0
    3.6975    2.2510    0.0070 H   0  0  0  0  0  0  0  0  0  0  0  0
    6.0954    1.7886    0.0141 H   0  0  0  0  0  0  0  0  0  0  0  0
    6.9263   -0.5230    0.0096 H   0  0  0  0  0  0  0  0  0  0  0  0
   -0.7104    4.1895   -0.0051 H   0  0  0  0  0  0  0  0  0  0  0  0
   -3.1914    3.3760    0.0011 H   0  0  0  0  0  0  0  0  0  0  0  0
   -5.0324    1.6034    0.0079 H   0  0  0  0  0  0  0  0  0  0  0  0
   -6.6927   -0.1794    0.0085 H   0  0  0  0  0  0  0  0  0  0  0  0
   -6.0024   -2.5395    0.0046 H   0  0  0  0  0  0  0  0  0  0  0  0
   -3.6502   -3.1518    0.0006 H   0  0  0  0  0  0  0  0  0  0  0  0
  1  2  2  0  0  0  0
  2  3  1  0  0  0  0
  3  4  2  0  0  0  0
  4  5  1  0  0  0  0
  5  6  2  0  0  0  0
  6  7  1  0  0  0  0
  7  8  2  0  0  0  0
  8  9  1  0  0  0  0
  9 10  2  0  0  0  0
 10 11  1  0  0  0  0
  6 11  1  0  0  0  0
 11 12  2  0  0  0  0
 12 13  1  0  0  0  0
 13 14  2  0  0  0  0
  5 14  1  0  0  0  0
 14 15  1  0  0  0  0
  2 15  1  0  0  0  0
 15 16  2  0  0  0  0
 16 17  1  0  0  0  0
 17 18  2  0  0  0  0
  1 18  1  0  0  0  0
 12 19  1  0  0  0  0
 19 20  2  0  0  0  0
 10 20  1  0  0  0  0
  9 21  1  0  0  0  0
 21 22  2  0  0  0  0
 22 23  1  0  0  0  0
 23 24  2  0  0  0  0
  8 24  1  0  0  0  0
  1 25  1  0  0  0  0
  3 26  1  0  0  0  0
  4 27  1  0  0  0  0
  7 28  1  0  0  0  0
 13 29  1  0  0  0  0
 16 30  1  0  0  0  0
 17 31  1  0  0  0  0
 18 32  1  0  0  0  0
 19 33  1  0  0  0  0
 20 34  1  0  0  0  0
 21 35  1  0  0  0  0
 22 36  1  0  0  0  0
 23 37  1  0  0  0  0
 24 38  1  0  0  0  0
M  END
$$$$
