C34H18
APtclcactv01171906223D 0   0.00000     0.00000
 
 52 60  0  0  0  0  0  0  0  0999 V2000
   -5.8696   -1.5741   -0.0017 C   0  0  0  0  0  0  0  0  0  0  0  0
   -7.2339   -1.5072   -0.0017 C   0  0  0  0  0  0  0  0  0  0  0  0
   -7.8852   -0.2788   -0.0008 C   0  0  0  0  0  0  0  0  0  0  0  0
   -7.1805    0.8890    0.0001 C   0  0  0  0  0  0  0  0  0  0  0  0
   -5.7777    0.8548    0.0006 C   0  0  0  0  0  0  0  0  0  0  0  0
   -5.1205   -0.3960   -0.0004 C   0  0  0  0  0  0  0  0  0  0  0  0
   -3.6519   -0.4264    0.0000 C   0  0  0  0  0  0  0  0  0  0  0  0
   -2.9776   -1.6490   -0.0004 C   0  0  0  0  0  0  0  0  0  0  0  0
   -1.5887   -1.6992    0.0003 C   0  0  0  0  0  0  0  0  0  0  0  0
   -0.8785   -2.9763   -0.0002 C   0  0  0  0  0  0  0  0  0  0  0  0
    0.4717   -3.0285   -0.0001 C   0  0  0  0  0  0  0  0  0  0  0  0
    1.2639   -1.8022    0.0005 C   0  0  0  0  0  0  0  0  0  0  0  0
    2.6561   -1.8252    0.0000 C   0  0  0  0  0  0  0  0  0  0  0  0
    3.3817   -0.6304    0.0005 C   0  0  0  0  0  0  0  0  0  0  0  0
    4.8492   -0.6390   -0.0000 C   0  0  0  0  0  0  0  0  0  0  0  0
    5.5549   -1.8454    0.0005 C   0  0  0  0  0  0  0  0  0  0  0  0
    6.9198   -1.8340    0.0008 C   0  0  0  0  0  0  0  0  0  0  0  0
    7.6208   -0.6321    0.0008 C   0  0  0  0  0  0  0  0  0  0  0  0
    6.9648    0.5612    0.0003 C   0  0  0  0  0  0  0  0  0  0  0  0
    5.5564    0.5875   -0.0000 C   0  0  0  0  0  0  0  0  0  0  0  0
    4.8745    1.8171   -0.0008 C   0  0  0  0  0  0  0  0  0  0  0  0
    3.4894    1.8659   -0.0012 C   0  0  0  0  0  0  0  0  0  0  0  0
    2.7765    3.1431   -0.0015 C   0  0  0  0  0  0  0  0  0  0  0  0
    1.4269    3.1951   -0.0015 C   0  0  0  0  0  0  0  0  0  0  0  0
    0.6319    1.9696   -0.0013 C   0  0  0  0  0  0  0  0  0  0  0  0
   -0.7593    1.9923   -0.0025 C   0  0  0  0  0  0  0  0  0  0  0  0
   -1.4880    0.7969   -0.0032 C   0  0  0  0  0  0  0  0  0  0  0  0
   -2.9539    0.8016    0.0013 C   0  0  0  0  0  0  0  0  0  0  0  0
   -3.6653    2.0145    0.0069 C   0  0  0  0  0  0  0  0  0  0  0  0
   -5.0180    2.0449    0.0020 C   0  0  0  0  0  0  0  0  0  0  0  0
   -0.8257   -0.4517    0.0009 C   0  0  0  0  0  0  0  0  0  0  0  0
    0.5758   -0.5120    0.0010 C   0  0  0  0  0  0  0  0  0  0  0  0
    1.3217    0.6792   -0.0009 C   0  0  0  0  0  0  0  0  0  0  0  0
    2.7225    0.6179    0.0012 C   0  0  0  0  0  0  0  0  0  0  0  0
   -5.3730   -2.5332    0.0017 H   0  0  0  0  0  0  0  0  0  0  0  0
   -7.8131   -2.4187   -0.0028 H   0  0  0  0  0  0  0  0  0  0  0  0
   -8.9647   -0.2489   -0.0012 H   0  0  0  0  0  0  0  0  0  0  0  0
   -7.6999    1.8359    0.0001 H   0  0  0  0  0  0  0  0  0  0  0  0
   -3.5434   -2.5689   -0.0010 H   0  0  0  0  0  0  0  0  0  0  0  0
   -1.4439   -3.8965   -0.0002 H   0  0  0  0  0  0  0  0  0  0  0  0
    0.9697   -3.9868   -0.0000 H   0  0  0  0  0  0  0  0  0  0  0  0
    3.1779   -2.7708   -0.0004 H   0  0  0  0  0  0  0  0  0  0  0  0
    5.0215   -2.7845    0.0009 H   0  0  0  0  0  0  0  0  0  0  0  0
    7.4617   -2.7683    0.0016 H   0  0  0  0  0  0  0  0  0  0  0  0
    8.7008   -0.6458    0.0014 H   0  0  0  0  0  0  0  0  0  0  0  0
    7.5232    1.4856    0.0006 H   0  0  0  0  0  0  0  0  0  0  0  0
    5.4387    2.7380   -0.0007 H   0  0  0  0  0  0  0  0  0  0  0  0
    3.3411    4.0637   -0.0013 H   0  0  0  0  0  0  0  0  0  0  0  0
    0.9297    4.1539   -0.0014 H   0  0  0  0  0  0  0  0  0  0  0  0
   -1.2804    2.9382   -0.0024 H   0  0  0  0  0  0  0  0  0  0  0  0
   -3.1179    2.9455    0.0084 H   0  0  0  0  0  0  0  0  0  0  0  0
   -5.5264    2.9978    0.0062 H   0  0  0  0  0  0  0  0  0  0  0  0
  1  2  2  0  0  0  0
  2  3  1  0  0  0  0
  3  4  2  0  0  0  0
  4  5  1  0  0  0  0
  5  6  1  0  0  0  0
  1  6  1  0  0  0  0
  6  7  2  0  0  0  0
  7  8  1  0  0  0  0
  8  9  2  0  0  0  0
  9 10  1  0  0  0  0
 10 11  2  0  0  0  0
 11 12  1  0  0  0  0
 12 13  2  0  0  0  0
 13 14  1  0  0  0  0
 14 15  2  0  0  0  0
 15 16  1  0  0  0  0
 16 17  2  0  0  0  0
 17 18  1  0  0  0  0
 18 19  2  0  0  0  0
 19 20  1  0  0  0  0
 15 20  1  0  0  0  0
 20 21  2  0  0  0  0
 21 22  1  0  0  0  0
 22 23  2  0  0  0  0
 23 24  1  0  0  0  0
 24 25  2  0  0  0  0
 25 26  1  0  0  0  0
 26 27  2  0  0  0  0
 27 28  1  0  0  0  0
  7 28  1  0  0  0  0
 28 29  2  0  0  0  0
 29 30  1  0  0  0  0
  5 30  2  0  0  0  0
 27 31  1  0  0  0  0
  9 31  1  0  0  0  0
 31 32  2  0  0  0  0
 12 32  1  0  0  0  0
 32 33  1  0  0  0  0
 25 33  1  0  0  0  0
 33 34  2  0  0  0  0
 22 34  1  0  0  0  0
 14 34  1  0  0  0  0
  1 35  1  0  0  0  0
  2 36  1  0  0  0  0
  3 37  1  0  0  0  0
  4 38  1  0  0  0  0
  8 39  1  0  0  0  0
 10 40  1  0  0  0  0
 11 41  1  0  0  0  0
 13 42  1  0  0  0  0
 16 43  1  0  0  0  0
 17 44  1  0  0  0  0
 18 45  1  0  0  0  0
 19 46  1  0  0  0  0
 21 47  1  0  0  0  0
 23 48  1  0  0  0  0
 24 49  1  0  0  0  0
 26 50  1  0  0  0  0
 29 51  1  0  0  0  0
 30 52  1  0  0  0  0
M  END
$$$$
