C22H12
APtclcactv01171906233D 0   0.00000     0.00000
 
 34 39  0  0  0  0  0  0  0  0999 V2000
   -2.3849   -2.9574    0.0003 C   0  0  0  0  0  0  0  0  0  0  0  0
   -3.5878   -2.3150   -0.0036 C   0  0  0  0  0  0  0  0  0  0  0  0
   -3.3889   -0.8689   -0.0039 C   0  0  0  0  0  0  0  0  0  0  0  0
   -4.1486    0.3069   -0.0069 C   0  0  0  0  0  0  0  0  0  0  0  0
   -3.5480    1.5442   -0.0045 C   0  0  0  0  0  0  0  0  0  0  0  0
   -2.1561    1.7081   -0.0001 C   0  0  0  0  0  0  0  0  0  0  0  0
   -1.3716    0.5310    0.0014 C   0  0  0  0  0  0  0  0  0  0  0  0
    0.0307    0.5405    0.0033 C   0  0  0  0  0  0  0  0  0  0  0  0
    0.6996    1.8408    0.0036 C   0  0  0  0  0  0  0  0  0  0  0  0
    2.0842    1.8793    0.0013 C   0  0  0  0  0  0  0  0  0  0  0  0
    2.8319    0.6869   -0.0014 C   0  0  0  0  0  0  0  0  0  0  0  0
    4.2404    0.7507   -0.0106 C   0  0  0  0  0  0  0  0  0  0  0  0
    4.9726   -0.3963   -0.0095 C   0  0  0  0  0  0  0  0  0  0  0  0
    4.3520   -1.6419    0.0006 C   0  0  0  0  0  0  0  0  0  0  0  0
    2.9912   -1.7428    0.0066 C   0  0  0  0  0  0  0  0  0  0  0  0
    2.2066   -0.5858    0.0040 C   0  0  0  0  0  0  0  0  0  0  0  0
    0.7424   -0.6760    0.0044 C   0  0  0  0  0  0  0  0  0  0  0  0
    0.0796   -1.9189    0.0047 C   0  0  0  0  0  0  0  0  0  0  0  0
   -1.3083   -1.9687    0.0023 C   0  0  0  0  0  0  0  0  0  0  0  0
   -2.0038   -0.6952   -0.0000 C   0  0  0  0  0  0  0  0  0  0  0  0
   -0.1387    3.0389    0.0054 C   0  0  0  0  0  0  0  0  0  0  0  0
   -1.4937    2.9548    0.0039 C   0  0  0  0  0  0  0  0  0  0  0  0
   -2.2489   -4.0288    0.0058 H   0  0  0  0  0  0  0  0  0  0  0  0
   -4.5498   -2.8059   -0.0062 H   0  0  0  0  0  0  0  0  0  0  0  0
   -5.2265    0.2413   -0.0114 H   0  0  0  0  0  0  0  0  0  0  0  0
   -4.1737    2.4245   -0.0066 H   0  0  0  0  0  0  0  0  0  0  0  0
    2.5939    2.8315    0.0011 H   0  0  0  0  0  0  0  0  0  0  0  0
    4.7379    1.7093   -0.0189 H   0  0  0  0  0  0  0  0  0  0  0  0
    6.0510   -0.3392   -0.0168 H   0  0  0  0  0  0  0  0  0  0  0  0
    4.9540   -2.5386    0.0033 H   0  0  0  0  0  0  0  0  0  0  0  0
    2.5210   -2.7151    0.0136 H   0  0  0  0  0  0  0  0  0  0  0  0
    0.6518   -2.8349    0.0065 H   0  0  0  0  0  0  0  0  0  0  0  0
    0.3303    4.0118    0.0086 H   0  0  0  0  0  0  0  0  0  0  0  0
   -2.0785    3.8628    0.0050 H   0  0  0  0  0  0  0  0  0  0  0  0
  1  2  2  0  0  0  0
  2  3  1  0  0  0  0
  3  4  2  0  0  0  0
  4  5  1  0  0  0  0
  5  6  2  0  0  0  0
  6  7  1  0  0  0  0
  7  8  2  0  0  0  0
  8  9  1  0  0  0  0
  9 10  2  0  0  0  0
 10 11  1  0  0  0  0
 11 12  2  0  0  0  0
 12 13  1  0  0  0  0
 13 14  2  0  0  0  0
 14 15  1  0  0  0  0
 15 16  2  0  0  0  0
 11 16  1  0  0  0  0
 16 17  1  0  0  0  0
  8 17  1  0  0  0  0
 17 18  2  0  0  0  0
 18 19  1  0  0  0  0
  1 19  1  0  0  0  0
 19 20  2  0  0  0  0
  3 20  1  0  0  0  0
  7 20  1  0  0  0  0
  9 21  1  0  0  0  0
 21 22  2  0  0  0  0
  6 22  1  0  0  0  0
  1 23  1  0  0  0  0
  2 24  1  0  0  0  0
  4 25  1  0  0  0  0
  5 26  1  0  0  0  0
 10 27  1  0  0  0  0
 12 28  1  0  0  0  0
 13 29  1  0  0  0  0
 14 30  1  0  0  0  0
 15 31  1  0  0  0  0
 18 32  1  0  0  0  0
 21 33  1  0  0  0  0
 22 34  1  0  0  0  0
M  END
$$$$
