C28H16
APtclcactv01171906223D 0   0.00000     0.00000
 
 44 50  0  0  0  0  0  0  0  0999 V2000
   -4.5326   -1.7817    0.0001 C   0  0  0  0  0  0  0  0  0  0  0  0
   -5.8934   -1.9056   -0.0001 C   0  0  0  0  0  0  0  0  0  0  0  0
   -6.7093   -0.7807   -0.0007 C   0  0  0  0  0  0  0  0  0  0  0  0
   -6.1731    0.4738   -0.0012 C   0  0  0  0  0  0  0  0  0  0  0  0
   -4.7798    0.6342   -0.0006 C   0  0  0  0  0  0  0  0  0  0  0  0
   -4.1956    1.9216   -0.0006 C   0  0  0  0  0  0  0  0  0  0  0  0
   -2.8554    2.0830    0.0001 C   0  0  0  0  0  0  0  0  0  0  0  0
   -1.9758    0.9803    0.0012 C   0  0  0  0  0  0  0  0  0  0  0  0
   -0.5759    1.1904    0.0013 C   0  0  0  0  0  0  0  0  0  0  0  0
   -0.0224    2.4888    0.0005 C   0  0  0  0  0  0  0  0  0  0  0  0
    1.3157    2.6928    0.0001 C   0  0  0  0  0  0  0  0  0  0  0  0
    2.2171    1.5982   -0.0000 C   0  0  0  0  0  0  0  0  0  0  0  0
    3.5926    1.7773   -0.0005 C   0  0  0  0  0  0  0  0  0  0  0  0
    4.4590    0.6732   -0.0002 C   0  0  0  0  0  0  0  0  0  0  0  0
    3.9571   -0.6537    0.0002 C   0  0  0  0  0  0  0  0  0  0  0  0
    2.5133   -0.8809    0.0004 C   0  0  0  0  0  0  0  0  0  0  0  0
    1.9625   -2.1765    0.0005 C   0  0  0  0  0  0  0  0  0  0  0  0
    0.6215   -2.3803    0.0002 C   0  0  0  0  0  0  0  0  0  0  0  0
   -0.2744   -1.2863   -0.0004 C   0  0  0  0  0  0  0  0  0  0  0  0
   -1.6580   -1.4518   -0.0016 C   0  0  0  0  0  0  0  0  0  0  0  0
   -2.4945   -0.3365    0.0016 C   0  0  0  0  0  0  0  0  0  0  0  0
   -3.9545   -0.5115    0.0001 C   0  0  0  0  0  0  0  0  0  0  0  0
    0.2729    0.0686    0.0018 C   0  0  0  0  0  0  0  0  0  0  0  0
    1.6681    0.2420    0.0009 C   0  0  0  0  0  0  0  0  0  0  0  0
    4.8521   -1.7309    0.0001 C   0  0  0  0  0  0  0  0  0  0  0  0
    6.1949   -1.4977   -0.0005 C   0  0  0  0  0  0  0  0  0  0  0  0
    6.6932   -0.1968   -0.0010 C   0  0  0  0  0  0  0  0  0  0  0  0
    5.8548    0.8738   -0.0008 C   0  0  0  0  0  0  0  0  0  0  0  0
   -3.9075   -2.6623    0.0047 H   0  0  0  0  0  0  0  0  0  0  0  0
   -6.3399   -2.8890   -0.0001 H   0  0  0  0  0  0  0  0  0  0  0  0
   -7.7826   -0.9012   -0.0012 H   0  0  0  0  0  0  0  0  0  0  0  0
   -6.8186    1.3396   -0.0024 H   0  0  0  0  0  0  0  0  0  0  0  0
   -4.8339    2.7928   -0.0014 H   0  0  0  0  0  0  0  0  0  0  0  0
   -2.4460    3.0824   -0.0007 H   0  0  0  0  0  0  0  0  0  0  0  0
   -0.6842    3.3423   -0.0002 H   0  0  0  0  0  0  0  0  0  0  0  0
    1.7016    3.7015   -0.0005 H   0  0  0  0  0  0  0  0  0  0  0  0
    4.0012    2.7770   -0.0016 H   0  0  0  0  0  0  0  0  0  0  0  0
    2.6245   -3.0298    0.0005 H   0  0  0  0  0  0  0  0  0  0  0  0
    0.2340   -3.3884   -0.0001 H   0  0  0  0  0  0  0  0  0  0  0  0
   -2.0826   -2.4449   -0.0019 H   0  0  0  0  0  0  0  0  0  0  0  0
    4.4790   -2.7444    0.0008 H   0  0  0  0  0  0  0  0  0  0  0  0
    6.8810   -2.3317   -0.0003 H   0  0  0  0  0  0  0  0  0  0  0  0
    7.7612   -0.0362   -0.0015 H   0  0  0  0  0  0  0  0  0  0  0  0
    6.2572    1.8761   -0.0016 H   0  0  0  0  0  0  0  0  0  0  0  0
  1  2  2  0  0  0  0
  2  3  1  0  0  0  0
  3  4  2  0  0  0  0
  4  5  1  0  0  0  0
  5  6  1  0  0  0  0
  6  7  2  0  0  0  0
  7  8  1  0  0  0  0
  8  9  2  0  0  0  0
  9 10  1  0  0  0  0
 10 11  2  0  0  0  0
 11 12  1  0  0  0  0
 12 13  1  0  0  0  0
 13 14  2  0  0  0  0
 14 15  1  0  0  0  0
 15 16  2  0  0  0  0
 16 17  1  0  0  0  0
 17 18  2  0  0  0  0
 18 19  1  0  0  0  0
 19 20  1  0  0  0  0
 20 21  2  0  0  0  0
  8 21  1  0  0  0  0
 21 22  1  0  0  0  0
  1 22  1  0  0  0  0
  5 22  2  0  0  0  0
 19 23  2  0  0  0  0
  9 23  1  0  0  0  0
 23 24  1  0  0  0  0
 16 24  1  0  0  0  0
 12 24  2  0  0  0  0
 15 25  1  0  0  0  0
 25 26  2  0  0  0  0
 26 27  1  0  0  0  0
 27 28  2  0  0  0  0
 14 28  1  0  0  0  0
  1 29  1  0  0  0  0
  2 30  1  0  0  0  0
  3 31  1  0  0  0  0
  4 32  1  0  0  0  0
  6 33  1  0  0  0  0
  7 34  1  0  0  0  0
 10 35  1  0  0  0  0
 11 36  1  0  0  0  0
 13 37  1  0  0  0  0
 17 38  1  0  0  0  0
 18 39  1  0  0  0  0
 20 40  1  0  0  0  0
 25 41  1  0  0  0  0
 26 42  1  0  0  0  0
 27 43  1  0  0  0  0
 28 44  1  0  0  0  0
M  END
$$$$
