C18H12
APtclcactv01171906223D 0   0.00000     0.00000
 
 30 33  0  0  0  0  0  0  0  0999 V2000
   -3.7677    1.1372    0.0012 C   0  0  0  0  0  0  0  0  0  0  0  0
   -4.6006    0.0582    0.0016 C   0  0  0  0  0  0  0  0  0  0  0  0
   -4.0934   -1.2372    0.0007 C   0  0  0  0  0  0  0  0  0  0  0  0
   -2.7470   -1.4601   -0.0000 C   0  0  0  0  0  0  0  0  0  0  0  0
   -1.8659   -0.3751   -0.0005 C   0  0  0  0  0  0  0  0  0  0  0  0
   -0.4146   -0.5683   -0.0008 C   0  0  0  0  0  0  0  0  0  0  0  0
    0.1495   -1.8560   -0.0008 C   0  0  0  0  0  0  0  0  0  0  0  0
    1.4895   -2.0401   -0.0006 C   0  0  0  0  0  0  0  0  0  0  0  0
    2.3773   -0.9430   -0.0005 C   0  0  0  0  0  0  0  0  0  0  0  0
    1.8659    0.3755   -0.0005 C   0  0  0  0  0  0  0  0  0  0  0  0
    0.4147    0.5691   -0.0007 C   0  0  0  0  0  0  0  0  0  0  0  0
   -0.1497    1.8567   -0.0013 C   0  0  0  0  0  0  0  0  0  0  0  0
   -1.4900    2.0405   -0.0014 C   0  0  0  0  0  0  0  0  0  0  0  0
   -2.3777    0.9433   -0.0001 C   0  0  0  0  0  0  0  0  0  0  0  0
    2.7476    1.4601    0.0005 C   0  0  0  0  0  0  0  0  0  0  0  0
    4.0939    1.2363    0.0015 C   0  0  0  0  0  0  0  0  0  0  0  0
    4.6008   -0.0592    0.0012 C   0  0  0  0  0  0  0  0  0  0  0  0
    3.7672   -1.1376    0.0002 C   0  0  0  0  0  0  0  0  0  0  0  0
   -4.1757    2.1371   -0.0026 H   0  0  0  0  0  0  0  0  0  0  0  0
   -5.6697    0.2111    0.0029 H   0  0  0  0  0  0  0  0  0  0  0  0
   -4.7732   -2.0764    0.0011 H   0  0  0  0  0  0  0  0  0  0  0  0
   -2.3642   -2.4700    0.0000 H   0  0  0  0  0  0  0  0  0  0  0  0
   -0.5017   -2.7176   -0.0005 H   0  0  0  0  0  0  0  0  0  0  0  0
    1.8871   -3.0443   -0.0002 H   0  0  0  0  0  0  0  0  0  0  0  0
    0.5012    2.7185   -0.0012 H   0  0  0  0  0  0  0  0  0  0  0  0
   -1.8877    3.0446   -0.0011 H   0  0  0  0  0  0  0  0  0  0  0  0
    2.3654    2.4702    0.0001 H   0  0  0  0  0  0  0  0  0  0  0  0
    4.7741    2.0753    0.0023 H   0  0  0  0  0  0  0  0  0  0  0  0
    5.6699   -0.2126    0.0013 H   0  0  0  0  0  0  0  0  0  0  0  0
    4.1747   -2.1378    0.0002 H   0  0  0  0  0  0  0  0  0  0  0  0
  1  2  2  0  0  0  0
  2  3  1  0  0  0  0
  3  4  2  0  0  0  0
  4  5  1  0  0  0  0
  5  6  1  0  0  0  0
  6  7  1  0  0  0  0
  7  8  2  0  0  0  0
  8  9  1  0  0  0  0
  9 10  2  0  0  0  0
 10 11  1  0  0  0  0
  6 11  2  0  0  0  0
 11 12  1  0  0  0  0
 12 13  2  0  0  0  0
 13 14  1  0  0  0  0
  1 14  1  0  0  0  0
  5 14  2  0  0  0  0
 10 15  1  0  0  0  0
 15 16  2  0  0  0  0
 16 17  1  0  0  0  0
 17 18  2  0  0  0  0
  9 18  1  0  0  0  0
  1 19  1  0  0  0  0
  2 20  1  0  0  0  0
  3 21  1  0  0  0  0
  4 22  1  0  0  0  0
  7 23  1  0  0  0  0
  8 24  1  0  0  0  0
 12 25  1  0  0  0  0
 13 26  1  0  0  0  0
 15 27  1  0  0  0  0
 16 28  1  0  0  0  0
 17 29  1  0  0  0  0
 18 30  1  0  0  0  0
M  END
$$$$
