C20H12
APtclcactv01171906243D 0   0.00000     0.00000
 
 32 36  0  0  0  0  0  0  0  0999 V2000
   -2.2538   -2.0896    0.0075 C   0  0  0  0  0  0  0  0  0  0  0  0
   -3.6292   -1.9379    0.0140 C   0  0  0  0  0  0  0  0  0  0  0  0
   -4.2572   -0.6975    0.0127 C   0  0  0  0  0  0  0  0  0  0  0  0
   -3.4892    0.4632    0.0039 C   0  0  0  0  0  0  0  0  0  0  0  0
   -3.7077    1.9101   -0.0019 C   0  0  0  0  0  0  0  0  0  0  0  0
   -2.5143    2.5584   -0.0087 C   0  0  0  0  0  0  0  0  0  0  0  0
   -1.4324    1.5705   -0.0074 C   0  0  0  0  0  0  0  0  0  0  0  0
   -0.0503    1.5617   -0.0098 C   0  0  0  0  0  0  0  0  0  0  0  0
    0.6575    0.3457   -0.0069 C   0  0  0  0  0  0  0  0  0  0  0  0
    2.1260    0.3631   -0.0015 C   0  0  0  0  0  0  0  0  0  0  0  0
    2.8278   -0.8634   -0.0045 C   0  0  0  0  0  0  0  0  0  0  0  0
    2.1149   -2.0809   -0.0126 C   0  0  0  0  0  0  0  0  0  0  0  0
    0.7613   -2.0970   -0.0141 C   0  0  0  0  0  0  0  0  0  0  0  0
    0.0097   -0.9123   -0.0076 C   0  0  0  0  0  0  0  0  0  0  0  0
   -1.4535   -0.9434   -0.0005 C   0  0  0  0  0  0  0  0  0  0  0  0
   -2.1026    0.2842   -0.0015 C   0  0  0  0  0  0  0  0  0  0  0  0
    4.2316   -0.8487    0.0017 C   0  0  0  0  0  0  0  0  0  0  0  0
    4.8947    0.3425    0.0114 C   0  0  0  0  0  0  0  0  0  0  0  0
    4.2000    1.5474    0.0151 C   0  0  0  0  0  0  0  0  0  0  0  0
    2.8349    1.5671    0.0080 C   0  0  0  0  0  0  0  0  0  0  0  0
   -1.8077   -3.0732    0.0130 H   0  0  0  0  0  0  0  0  0  0  0  0
   -4.2443   -2.8256    0.0199 H   0  0  0  0  0  0  0  0  0  0  0  0
   -5.3354   -0.6349    0.0183 H   0  0  0  0  0  0  0  0  0  0  0  0
   -4.6747    2.3911   -0.0011 H   0  0  0  0  0  0  0  0  0  0  0  0
   -2.3838    3.6305   -0.0146 H   0  0  0  0  0  0  0  0  0  0  0  0
    0.4911    2.4962   -0.0142 H   0  0  0  0  0  0  0  0  0  0  0  0
    2.6576   -3.0147   -0.0179 H   0  0  0  0  0  0  0  0  0  0  0  0
    0.2466   -3.0464   -0.0203 H   0  0  0  0  0  0  0  0  0  0  0  0
    4.7838   -1.7768   -0.0008 H   0  0  0  0  0  0  0  0  0  0  0  0
    5.9747    0.3505    0.0167 H   0  0  0  0  0  0  0  0  0  0  0  0
    4.7470    2.4786    0.0234 H   0  0  0  0  0  0  0  0  0  0  0  0
    2.3057    2.5086    0.0104 H   0  0  0  0  0  0  0  0  0  0  0  0
  1  2  2  0  0  0  0
  2  3  1  0  0  0  0
  3  4  2  0  0  0  0
  4  5  1  0  0  0  0
  5  6  2  0  0  0  0
  6  7  1  0  0  0  0
  7  8  2  0  0  0  0
  8  9  1  0  0  0  0
  9 10  2  0  0  0  0
 10 11  1  0  0  0  0
 11 12  2  0  0  0  0
 12 13  1  0  0  0  0
 13 14  2  0  0  0  0
  9 14  1  0  0  0  0
 14 15  1  0  0  0  0
  1 15  1  0  0  0  0
 15 16  2  0  0  0  0
  4 16  1  0  0  0  0
  7 16  1  0  0  0  0
 11 17  1  0  0  0  0
 17 18  2  0  0  0  0
 18 19  1  0  0  0  0
 19 20  2  0  0  0  0
 10 20  1  0  0  0  0
  1 21  1  0  0  0  0
  2 22  1  0  0  0  0
  3 23  1  0  0  0  0
  5 24  1  0  0  0  0
  6 25  1  0  0  0  0
  8 26  1  0  0  0  0
 12 27  1  0  0  0  0
 13 28  1  0  0  0  0
 17 29  1  0  0  0  0
 18 30  1  0  0  0  0
 19 31  1  0  0  0  0
 20 32  1  0  0  0  0
M  END
$$$$
