C20H12
APtclcactv01171906243D 0   0.00000     0.00000
 
 32 36  0  0  0  0  0  0  0  0999 V2000
   -1.5504   -2.4231    0.0014 C   0  0  0  0  0  0  0  0  0  0  0  0
   -2.8750   -2.8049    0.0038 C   0  0  0  0  0  0  0  0  0  0  0  0
   -3.8811   -1.8514    0.0042 C   0  0  0  0  0  0  0  0  0  0  0  0
   -3.5700   -0.5075    0.0026 C   0  0  0  0  0  0  0  0  0  0  0  0
   -2.2407   -0.0969   -0.0000 C   0  0  0  0  0  0  0  0  0  0  0  0
   -1.2108   -1.0717    0.0003 C   0  0  0  0  0  0  0  0  0  0  0  0
    0.0800   -0.3641   -0.0006 C   0  0  0  0  0  0  0  0  0  0  0  0
    1.4430   -0.7149   -0.0025 C   0  0  0  0  0  0  0  0  0  0  0  0
    1.8529   -2.0580   -0.0107 C   0  0  0  0  0  0  0  0  0  0  0  0
    3.1796   -2.3580   -0.0088 C   0  0  0  0  0  0  0  0  0  0  0  0
    4.1522   -1.3601    0.0018 C   0  0  0  0  0  0  0  0  0  0  0  0
    3.8233   -0.0427    0.0092 C   0  0  0  0  0  0  0  0  0  0  0  0
    2.4638    0.3404    0.0048 C   0  0  0  0  0  0  0  0  0  0  0  0
    2.1191    1.6997    0.0060 C   0  0  0  0  0  0  0  0  0  0  0  0
    0.7702    2.0530    0.0013 C   0  0  0  0  0  0  0  0  0  0  0  0
    0.2827    3.3772   -0.0008 C   0  0  0  0  0  0  0  0  0  0  0  0
   -1.0668    3.5825   -0.0049 C   0  0  0  0  0  0  0  0  0  0  0  0
   -2.0061    2.5515   -0.0054 C   0  0  0  0  0  0  0  0  0  0  0  0
   -1.5992    1.2307   -0.0020 C   0  0  0  0  0  0  0  0  0  0  0  0
   -0.2155    0.9926   -0.0002 C   0  0  0  0  0  0  0  0  0  0  0  0
   -0.7736   -3.1735    0.0048 H   0  0  0  0  0  0  0  0  0  0  0  0
   -3.1306   -3.8542    0.0050 H   0  0  0  0  0  0  0  0  0  0  0  0
   -4.9152   -2.1627    0.0054 H   0  0  0  0  0  0  0  0  0  0  0  0
   -4.3607    0.2281    0.0030 H   0  0  0  0  0  0  0  0  0  0  0  0
    1.1180   -2.8494   -0.0182 H   0  0  0  0  0  0  0  0  0  0  0  0
    3.4863   -3.3935   -0.0152 H   0  0  0  0  0  0  0  0  0  0  0  0
    5.1948   -1.6418    0.0045 H   0  0  0  0  0  0  0  0  0  0  0  0
    4.5983    0.7094    0.0188 H   0  0  0  0  0  0  0  0  0  0  0  0
    2.8857    2.4603    0.0109 H   0  0  0  0  0  0  0  0  0  0  0  0
    0.9655    4.2140    0.0011 H   0  0  0  0  0  0  0  0  0  0  0  0
   -1.4274    4.6005   -0.0075 H   0  0  0  0  0  0  0  0  0  0  0  0
   -3.0600    2.7873   -0.0074 H   0  0  0  0  0  0  0  0  0  0  0  0
  1  2  2  0  0  0  0
  2  3  1  0  0  0  0
  3  4  2  0  0  0  0
  4  5  1  0  0  0  0
  5  6  2  0  0  0  0
  1  6  1  0  0  0  0
  6  7  1  0  0  0  0
  7  8  1  0  0  0  0
  8  9  2  0  0  0  0
  9 10  1  0  0  0  0
 10 11  2  0  0  0  0
 11 12  1  0  0  0  0
 12 13  2  0  0  0  0
  8 13  1  0  0  0  0
 13 14  1  0  0  0  0
 14 15  2  0  0  0  0
 15 16  1  0  0  0  0
 16 17  2  0  0  0  0
 17 18  1  0  0  0  0
 18 19  2  0  0  0  0
  5 19  1  0  0  0  0
 19 20  1  0  0  0  0
  7 20  2  0  0  0  0
 15 20  1  0  0  0  0
  1 21  1  0  0  0  0
  2 22  1  0  0  0  0
  3 23  1  0  0  0  0
  4 24  1  0  0  0  0
  9 25  1  0  0  0  0
 10 26  1  0  0  0  0
 11 27  1  0  0  0  0
 12 28  1  0  0  0  0
 14 29  1  0  0  0  0
 16 30  1  0  0  0  0
 17 31  1  0  0  0  0
 18 32  1  0  0  0  0
M  END
$$$$
