C18H12
APtclcactv01171906223D 0   0.00000     0.00000
 
 30 33  0  0  0  0  0  0  0  0999 V2000
   -1.3809   -1.6437   -0.3505 C   0  0  0  0  0  0  0  0  0  0  0  0
   -2.5991   -2.2593   -0.3321 C   0  0  0  0  0  0  0  0  0  0  0  0
   -3.7566   -1.5420   -0.0508 C   0  0  0  0  0  0  0  0  0  0  0  0
   -3.7035   -0.1975    0.1651 C   0  0  0  0  0  0  0  0  0  0  0  0
   -2.4715    0.4693    0.0996 C   0  0  0  0  0  0  0  0  0  0  0  0
   -2.4096    1.8779    0.1565 C   0  0  0  0  0  0  0  0  0  0  0  0
   -1.2275    2.5258    0.0922 C   0  0  0  0  0  0  0  0  0  0  0  0
   -0.0059    1.8231    0.0207 C   0  0  0  0  0  0  0  0  0  0  0  0
    1.2097    2.5291   -0.1125 C   0  0  0  0  0  0  0  0  0  0  0  0
    2.3931    1.8855   -0.1888 C   0  0  0  0  0  0  0  0  0  0  0  0
    2.4663    0.4798   -0.0913 C   0  0  0  0  0  0  0  0  0  0  0  0
    3.6988   -0.1819   -0.1943 C   0  0  0  0  0  0  0  0  0  0  0  0
    3.7642   -1.5277    0.0086 C   0  0  0  0  0  0  0  0  0  0  0  0
    2.6175   -2.2551    0.3083 C   0  0  0  0  0  0  0  0  0  0  0  0
    1.3983   -1.6446    0.3718 C   0  0  0  0  0  0  0  0  0  0  0  0
    1.2844   -0.2748    0.1214 C   0  0  0  0  0  0  0  0  0  0  0  0
    0.0004    0.4131    0.0491 C   0  0  0  0  0  0  0  0  0  0  0  0
   -1.2781   -0.2824   -0.0501 C   0  0  0  0  0  0  0  0  0  0  0  0
   -0.5128   -2.2114   -0.6489 H   0  0  0  0  0  0  0  0  0  0  0  0
   -2.6636   -3.3175   -0.5387 H   0  0  0  0  0  0  0  0  0  0  0  0
   -4.7051   -2.0546   -0.0013 H   0  0  0  0  0  0  0  0  0  0  0  0
   -4.6067    0.3525    0.3850 H   0  0  0  0  0  0  0  0  0  0  0  0
   -3.3227    2.4457    0.2526 H   0  0  0  0  0  0  0  0  0  0  0  0
   -1.2160    3.6059    0.0951 H   0  0  0  0  0  0  0  0  0  0  0  0
    1.1907    3.6082   -0.1537 H   0  0  0  0  0  0  0  0  0  0  0  0
    3.3000    2.4553   -0.3260 H   0  0  0  0  0  0  0  0  0  0  0  0
    4.5934    0.3742   -0.4340 H   0  0  0  0  0  0  0  0  0  0  0  0
    4.7146   -2.0339   -0.0650 H   0  0  0  0  0  0  0  0  0  0  0  0
    2.6916   -3.3166    0.4934 H   0  0  0  0  0  0  0  0  0  0  0  0
    0.5377   -2.2260    0.6670 H   0  0  0  0  0  0  0  0  0  0  0  0
  1  2  2  0  0  0  0
  2  3  1  0  0  0  0
  3  4  2  0  0  0  0
  4  5  1  0  0  0  0
  5  6  1  0  0  0  0
  6  7  2  0  0  0  0
  7  8  1  0  0  0  0
  8  9  1  0  0  0  0
  9 10  2  0  0  0  0
 10 11  1  0  0  0  0
 11 12  1  0  0  0  0
 12 13  2  0  0  0  0
 13 14  1  0  0  0  0
 14 15  2  0  0  0  0
 15 16  1  0  0  0  0
 11 16  2  0  0  0  0
 16 17  1  0  0  0  0
  8 17  2  0  0  0  0
 17 18  1  0  0  0  0
  5 18  2  0  0  0  0
  1 18  1  0  0  0  0
  1 19  1  0  0  0  0
  2 20  1  0  0  0  0
  3 21  1  0  0  0  0
  4 22  1  0  0  0  0
  6 23  1  0  0  0  0
  7 24  1  0  0  0  0
  9 25  1  0  0  0  0
 10 26  1  0  0  0  0
 12 27  1  0  0  0  0
 13 28  1  0  0  0  0
 14 29  1  0  0  0  0
 15 30  1  0  0  0  0
M  END
$$$$
