C24H12
APtclcactv01171906233D 0   0.00000     0.00000
 
 36 42  0  0  0  0  0  0  0  0999 V2000
   -1.8201   -2.7994    0.0053 C   0  0  0  0  0  0  0  0  0  0  0  0
   -3.2051   -2.7887    0.0061 C   0  0  0  0  0  0  0  0  0  0  0  0
   -3.9108   -1.6051    0.0020 C   0  0  0  0  0  0  0  0  0  0  0  0
   -3.2319   -0.3803   -0.0016 C   0  0  0  0  0  0  0  0  0  0  0  0
   -3.9309    0.8489   -0.0074 C   0  0  0  0  0  0  0  0  0  0  0  0
   -3.2740    2.0335   -0.0073 C   0  0  0  0  0  0  0  0  0  0  0  0
   -1.8629    2.0759   -0.0018 C   0  0  0  0  0  0  0  0  0  0  0  0
   -1.1423    0.8625   -0.0003 C   0  0  0  0  0  0  0  0  0  0  0  0
    0.2642    0.9073    0.0009 C   0  0  0  0  0  0  0  0  0  0  0  0
    0.9656    2.1352    0.0030 C   0  0  0  0  0  0  0  0  0  0  0  0
    2.3803    2.1740    0.0033 C   0  0  0  0  0  0  0  0  0  0  0  0
    3.1126    0.9990    0.0010 C   0  0  0  0  0  0  0  0  0  0  0  0
    2.3565   -0.2412   -0.0005 C   0  0  0  0  0  0  0  0  0  0  0  0
    3.2021   -1.3518   -0.0026 C   0  0  0  0  0  0  0  0  0  0  0  0
    2.5708   -2.5996   -0.0037 C   0  0  0  0  0  0  0  0  0  0  0  0
    1.1857   -2.6975   -0.0025 C   0  0  0  0  0  0  0  0  0  0  0  0
    0.3594   -1.5765   -0.0005 C   0  0  0  0  0  0  0  0  0  0  0  0
   -1.1093   -1.6054    0.0014 C   0  0  0  0  0  0  0  0  0  0  0  0
   -1.8179   -0.3785    0.0001 C   0  0  0  0  0  0  0  0  0  0  0  0
    0.9794   -0.3063    0.0004 C   0  0  0  0  0  0  0  0  0  0  0  0
    4.5549   -0.7995   -0.0027 C   0  0  0  0  0  0  0  0  0  0  0  0
    4.5088    0.5618   -0.0006 C   0  0  0  0  0  0  0  0  0  0  0  0
    0.2057    3.3260    0.0052 C   0  0  0  0  0  0  0  0  0  0  0  0
   -1.1527    3.2907    0.0027 C   0  0  0  0  0  0  0  0  0  0  0  0
   -1.2900   -3.7404    0.0122 H   0  0  0  0  0  0  0  0  0  0  0  0
   -3.7422   -3.7257    0.0096 H   0  0  0  0  0  0  0  0  0  0  0  0
   -4.9907   -1.6221    0.0013 H   0  0  0  0  0  0  0  0  0  0  0  0
   -5.0109    0.8430   -0.0124 H   0  0  0  0  0  0  0  0  0  0  0  0
   -3.8359    2.9558   -0.0118 H   0  0  0  0  0  0  0  0  0  0  0  0
    2.8915    3.1254    0.0050 H   0  0  0  0  0  0  0  0  0  0  0  0
    3.1684   -3.4991   -0.0058 H   0  0  0  0  0  0  0  0  0  0  0  0
    0.7330   -3.6780   -0.0036 H   0  0  0  0  0  0  0  0  0  0  0  0
    5.4614   -1.3865   -0.0036 H   0  0  0  0  0  0  0  0  0  0  0  0
    5.3681    1.2159    0.0001 H   0  0  0  0  0  0  0  0  0  0  0  0
    0.7124    4.2797    0.0089 H   0  0  0  0  0  0  0  0  0  0  0  0
   -1.7023    4.2203    0.0039 H   0  0  0  0  0  0  0  0  0  0  0  0
  1  2  2  0  0  0  0
  2  3  1  0  0  0  0
  3  4  2  0  0  0  0
  4  5  1  0  0  0  0
  5  6  2  0  0  0  0
  6  7  1  0  0  0  0
  7  8  2  0  0  0  0
  8  9  1  0  0  0  0
  9 10  2  0  0  0  0
 10 11  1  0  0  0  0
 11 12  2  0  0  0  0
 12 13  1  0  0  0  0
 13 14  2  0  0  0  0
 14 15  1  0  0  0  0
 15 16  2  0  0  0  0
 16 17  1  0  0  0  0
 17 18  1  0  0  0  0
  1 18  1  0  0  0  0
 18 19  2  0  0  0  0
  8 19  1  0  0  0  0
  4 19  1  0  0  0  0
 17 20  2  0  0  0  0
 13 20  1  0  0  0  0
  9 20  1  0  0  0  0
 14 21  1  0  0  0  0
 21 22  2  0  0  0  0
 12 22  1  0  0  0  0
 10 23  1  0  0  0  0
 23 24  2  0  0  0  0
  7 24  1  0  0  0  0
  1 25  1  0  0  0  0
  2 26  1  0  0  0  0
  3 27  1  0  0  0  0
  5 28  1  0  0  0  0
  6 29  1  0  0  0  0
 11 30  1  0  0  0  0
 15 31  1  0  0  0  0
 16 32  1  0  0  0  0
 21 33  1  0  0  0  0
 22 34  1  0  0  0  0
 23 35  1  0  0  0  0
 24 36  1  0  0  0  0
M  END
$$$$
