C30H18
APtclcactv01171906233D 0   0.00000     0.00000
 
 48 54  0  0  0  0  0  0  0  0999 V2000
    4.1640   -2.6477    0.0989 C   0  0  0  0  0  0  0  0  0  0  0  0
    2.9560   -1.9214    0.0035 C   0  0  0  0  0  0  0  0  0  0  0  0
    1.7324   -2.6053   -0.1272 C   0  0  0  0  0  0  0  0  0  0  0  0
    0.5597   -1.9239   -0.1320 C   0  0  0  0  0  0  0  0  0  0  0  0
    0.5429   -0.5295    0.0164 C   0  0  0  0  0  0  0  0  0  0  0  0
   -0.7270    0.2050    0.0399 C   0  0  0  0  0  0  0  0  0  0  0  0
   -1.9463   -0.4605   -0.0376 C   0  0  0  0  0  0  0  0  0  0  0  0
   -3.1330    0.2627   -0.0322 C   0  0  0  0  0  0  0  0  0  0  0  0
   -3.1020    1.6803    0.0064 C   0  0  0  0  0  0  0  0  0  0  0  0
   -1.8832    2.3480    0.1100 C   0  0  0  0  0  0  0  0  0  0  0  0
   -0.6952    1.6189    0.1586 C   0  0  0  0  0  0  0  0  0  0  0  0
    0.5439    2.2694    0.3629 C   0  0  0  0  0  0  0  0  0  0  0  0
    1.7021    1.5764    0.3915 C   0  0  0  0  0  0  0  0  0  0  0  0
    1.7521    0.1886    0.1498 C   0  0  0  0  0  0  0  0  0  0  0  0
    2.9748   -0.5090    0.0312 C   0  0  0  0  0  0  0  0  0  0  0  0
    4.2697    0.1575   -0.0933 C   0  0  0  0  0  0  0  0  0  0  0  0
    5.4459   -0.6157    0.0746 C   0  0  0  0  0  0  0  0  0  0  0  0
    5.3573   -2.0225    0.1588 C   0  0  0  0  0  0  0  0  0  0  0  0
    6.6899    0.0272    0.1422 C   0  0  0  0  0  0  0  0  0  0  0  0
    6.7731    1.3648   -0.1063 C   0  0  0  0  0  0  0  0  0  0  0  0
    5.6334    2.0974   -0.4192 C   0  0  0  0  0  0  0  0  0  0  0  0
    4.4025    1.5057   -0.4316 C   0  0  0  0  0  0  0  0  0  0  0  0
   -4.3505    2.4369   -0.0587 C   0  0  0  0  0  0  0  0  0  0  0  0
   -5.5401    1.8058   -0.0909 C   0  0  0  0  0  0  0  0  0  0  0  0
   -5.6168    0.3480   -0.0591 C   0  0  0  0  0  0  0  0  0  0  0  0
   -6.8595   -0.2982   -0.0464 C   0  0  0  0  0  0  0  0  0  0  0  0
   -6.9183   -1.6610   -0.0195 C   0  0  0  0  0  0  0  0  0  0  0  0
   -5.7564   -2.4217   -0.0082 C   0  0  0  0  0  0  0  0  0  0  0  0
   -4.5208   -1.8146   -0.0213 C   0  0  0  0  0  0  0  0  0  0  0  0
   -4.4337   -0.4218   -0.0411 C   0  0  0  0  0  0  0  0  0  0  0  0
    4.1305   -3.7274    0.1197 H   0  0  0  0  0  0  0  0  0  0  0  0
    1.7273   -3.6809   -0.2247 H   0  0  0  0  0  0  0  0  0  0  0  0
   -0.3669   -2.4644   -0.2516 H   0  0  0  0  0  0  0  0  0  0  0  0
   -1.9705   -1.5375   -0.1019 H   0  0  0  0  0  0  0  0  0  0  0  0
   -1.8591    3.4271    0.1506 H   0  0  0  0  0  0  0  0  0  0  0  0
    0.5654    3.3405    0.4966 H   0  0  0  0  0  0  0  0  0  0  0  0
    2.6027    2.1073    0.6608 H   0  0  0  0  0  0  0  0  0  0  0  0
    6.2589   -2.6060    0.2691 H   0  0  0  0  0  0  0  0  0  0  0  0
    7.5781   -0.5343    0.3926 H   0  0  0  0  0  0  0  0  0  0  0  0
    7.7304    1.8601   -0.0565 H   0  0  0  0  0  0  0  0  0  0  0  0
    5.7214    3.1482   -0.6524 H   0  0  0  0  0  0  0  0  0  0  0  0
    3.5474    2.0828   -0.7526 H   0  0  0  0  0  0  0  0  0  0  0  0
   -4.3187    3.5162   -0.0832 H   0  0  0  0  0  0  0  0  0  0  0  0
   -6.4499    2.3855   -0.1400 H   0  0  0  0  0  0  0  0  0  0  0  0
   -7.7706    0.2819   -0.0563 H   0  0  0  0  0  0  0  0  0  0  0  0
   -7.8788   -2.1541   -0.0040 H   0  0  0  0  0  0  0  0  0  0  0  0
   -5.8223   -3.4997    0.0114 H   0  0  0  0  0  0  0  0  0  0  0  0
   -3.6258   -2.4193   -0.0155 H   0  0  0  0  0  0  0  0  0  0  0  0
  1  2  2  0  0  0  0
  2  3  1  0  0  0  0
  3  4  2  0  0  0  0
  4  5  1  0  0  0  0
  5  6  2  0  0  0  0
  6  7  1  0  0  0  0
  7  8  2  0  0  0  0
  8  9  1  0  0  0  0
  9 10  2  0  0  0  0
 10 11  1  0  0  0  0
  6 11  1  0  0  0  0
 11 12  2  0  0  0  0
 12 13  1  0  0  0  0
 13 14  2  0  0  0  0
  5 14  1  0  0  0  0
 14 15  1  0  0  0  0
  2 15  1  0  0  0  0
 15 16  2  0  0  0  0
 16 17  1  0  0  0  0
 17 18  2  0  0  0  0
  1 18  1  0  0  0  0
 17 19  1  0  0  0  0
 19 20  2  0  0  0  0
 20 21  1  0  0  0  0
 21 22  2  0  0  0  0
 16 22  1  0  0  0  0
  9 23  1  0  0  0  0
 23 24  2  0  0  0  0
 24 25  1  0  0  0  0
 25 26  2  0  0  0  0
 26 27  1  0  0  0  0
 27 28  2  0  0  0  0
 28 29  1  0  0  0  0
 29 30  2  0  0  0  0
 25 30  1  0  0  0  0
  8 30  1  0  0  0  0
  1 31  1  0  0  0  0
  3 32  1  0  0  0  0
  4 33  1  0  0  0  0
  7 34  1  0  0  0  0
 10 35  1  0  0  0  0
 12 36  1  0  0  0  0
 13 37  1  0  0  0  0
 18 38  1  0  0  0  0
 19 39  1  0  0  0  0
 20 40  1  0  0  0  0
 21 41  1  0  0  0  0
 22 42  1  0  0  0  0
 23 43  1  0  0  0  0
 24 44  1  0  0  0  0
 26 45  1  0  0  0  0
 27 46  1  0  0  0  0
 28 47  1  0  0  0  0
 29 48  1  0  0  0  0
M  END
$$$$
