C28H16
APtclcactv01171906223D 0   0.00000     0.00000
 
 44 50  0  0  0  0  0  0  0  0999 V2000
    3.3133   -3.2789   -0.0010 C   0  0  0  0  0  0  0  0  0  0  0  0
    2.0831   -2.6059   -0.0002 C   0  0  0  0  0  0  0  0  0  0  0  0
    0.8651   -3.3194   -0.0001 C   0  0  0  0  0  0  0  0  0  0  0  0
   -0.3204   -2.6611    0.0002 C   0  0  0  0  0  0  0  0  0  0  0  0
   -0.3640   -1.2561    0.0004 C   0  0  0  0  0  0  0  0  0  0  0  0
    0.8283   -0.5134    0.0004 C   0  0  0  0  0  0  0  0  0  0  0  0
    2.0674   -1.1914    0.0001 C   0  0  0  0  0  0  0  0  0  0  0  0
    3.2844   -0.4790    0.0006 C   0  0  0  0  0  0  0  0  0  0  0  0
    3.2817    0.9954    0.0005 C   0  0  0  0  0  0  0  0  0  0  0  0
    2.0632    1.6978   -0.0001 C   0  0  0  0  0  0  0  0  0  0  0  0
    0.7898    0.9497   -0.0002 C   0  0  0  0  0  0  0  0  0  0  0  0
   -0.4103    1.6234   -0.0009 C   0  0  0  0  0  0  0  0  0  0  0  0
   -1.6365    0.9270   -0.0009 C   0  0  0  0  0  0  0  0  0  0  0  0
   -2.8424    1.6307   -0.0012 C   0  0  0  0  0  0  0  0  0  0  0  0
   -4.0494    0.9336   -0.0008 C   0  0  0  0  0  0  0  0  0  0  0  0
   -5.2853    1.6147   -0.0005 C   0  0  0  0  0  0  0  0  0  0  0  0
   -6.4419    0.9030    0.0003 C   0  0  0  0  0  0  0  0  0  0  0  0
   -6.4443   -0.4915    0.0010 C   0  0  0  0  0  0  0  0  0  0  0  0
   -5.2899   -1.2074    0.0009 C   0  0  0  0  0  0  0  0  0  0  0  0
   -4.0523   -0.5323   -0.0001 C   0  0  0  0  0  0  0  0  0  0  0  0
   -2.8451   -1.2342    0.0002 C   0  0  0  0  0  0  0  0  0  0  0  0
   -1.6444   -0.5388    0.0002 C   0  0  0  0  0  0  0  0  0  0  0  0
    2.0667    3.0918   -0.0002 C   0  0  0  0  0  0  0  0  0  0  0  0
    3.2646    3.7737    0.0003 C   0  0  0  0  0  0  0  0  0  0  0  0
    4.4669    3.0829    0.0009 C   0  0  0  0  0  0  0  0  0  0  0  0
    4.4830    1.7049    0.0005 C   0  0  0  0  0  0  0  0  0  0  0  0
    4.4850   -1.1795    0.0007 C   0  0  0  0  0  0  0  0  0  0  0  0
    4.4896   -2.5656   -0.0014 C   0  0  0  0  0  0  0  0  0  0  0  0
    3.3373   -4.3587    0.0033 H   0  0  0  0  0  0  0  0  0  0  0  0
    0.8776   -4.3994   -0.0007 H   0  0  0  0  0  0  0  0  0  0  0  0
   -1.2426   -3.2233   -0.0002 H   0  0  0  0  0  0  0  0  0  0  0  0
   -0.4129    2.7034   -0.0010 H   0  0  0  0  0  0  0  0  0  0  0  0
   -2.8399    2.7107   -0.0013 H   0  0  0  0  0  0  0  0  0  0  0  0
   -5.3112    2.6943   -0.0007 H   0  0  0  0  0  0  0  0  0  0  0  0
   -7.3842    1.4307    0.0009 H   0  0  0  0  0  0  0  0  0  0  0  0
   -7.3885   -1.0159    0.0021 H   0  0  0  0  0  0  0  0  0  0  0  0
   -5.3199   -2.2870    0.0014 H   0  0  0  0  0  0  0  0  0  0  0  0
   -2.8460   -2.3142    0.0007 H   0  0  0  0  0  0  0  0  0  0  0  0
    1.1337    3.6359   -0.0011 H   0  0  0  0  0  0  0  0  0  0  0  0
    3.2668    4.8537   -0.0002 H   0  0  0  0  0  0  0  0  0  0  0  0
    5.3985    3.6293    0.0013 H   0  0  0  0  0  0  0  0  0  0  0  0
    5.4241    1.1751    0.0011 H   0  0  0  0  0  0  0  0  0  0  0  0
    5.4206   -0.6401    0.0007 H   0  0  0  0  0  0  0  0  0  0  0  0
    5.4316   -3.0940   -0.0013 H   0  0  0  0  0  0  0  0  0  0  0  0
  1  2  2  0  0  0  0
  2  3  1  0  0  0  0
  3  4  2  0  0  0  0
  4  5  1  0  0  0  0
  5  6  1  0  0  0  0
  6  7  2  0  0  0  0
  2  7  1  0  0  0  0
  7  8  1  0  0  0  0
  8  9  2  0  0  0  0
  9 10  1  0  0  0  0
 10 11  2  0  0  0  0
  6 11  1  0  0  0  0
 11 12  1  0  0  0  0
 12 13  2  0  0  0  0
 13 14  1  0  0  0  0
 14 15  2  0  0  0  0
 15 16  1  0  0  0  0
 16 17  2  0  0  0  0
 17 18  1  0  0  0  0
 18 19  2  0  0  0  0
 19 20  1  0  0  0  0
 15 20  1  0  0  0  0
 20 21  2  0  0  0  0
 21 22  1  0  0  0  0
  5 22  2  0  0  0  0
 13 22  1  0  0  0  0
 10 23  1  0  0  0  0
 23 24  2  0  0  0  0
 24 25  1  0  0  0  0
 25 26  2  0  0  0  0
  9 26  1  0  0  0  0
  8 27  1  0  0  0  0
 27 28  2  0  0  0  0
  1 28  1  0  0  0  0
  1 29  1  0  0  0  0
  3 30  1  0  0  0  0
  4 31  1  0  0  0  0
 12 32  1  0  0  0  0
 14 33  1  0  0  0  0
 16 34  1  0  0  0  0
 17 35  1  0  0  0  0
 18 36  1  0  0  0  0
 19 37  1  0  0  0  0
 21 38  1  0  0  0  0
 23 39  1  0  0  0  0
 24 40  1  0  0  0  0
 25 41  1  0  0  0  0
 26 42  1  0  0  0  0
 27 43  1  0  0  0  0
 28 44  1  0  0  0  0
M  END
$$$$
