C30H18
APtclcactv01171906223D 0   0.00000     0.00000
 
 48 54  0  0  0  0  0  0  0  0999 V2000
   -5.4711   -1.7901    0.0004 C   0  0  0  0  0  0  0  0  0  0  0  0
   -6.8272   -2.0258    0.0010 C   0  0  0  0  0  0  0  0  0  0  0  0
   -7.7284   -0.9686    0.0027 C   0  0  0  0  0  0  0  0  0  0  0  0
   -7.2904    0.3238    0.0032 C   0  0  0  0  0  0  0  0  0  0  0  0
   -5.9157    0.5958    0.0025 C   0  0  0  0  0  0  0  0  0  0  0  0
   -5.4292    1.9721    0.0026 C   0  0  0  0  0  0  0  0  0  0  0  0
   -4.1082    2.2401    0.0012 C   0  0  0  0  0  0  0  0  0  0  0  0
   -3.1234    1.1615   -0.0003 C   0  0  0  0  0  0  0  0  0  0  0  0
   -3.5572   -0.1897   -0.0002 C   0  0  0  0  0  0  0  0  0  0  0  0
   -2.6313   -1.2228   -0.0015 C   0  0  0  0  0  0  0  0  0  0  0  0
   -1.2643   -0.9318   -0.0027 C   0  0  0  0  0  0  0  0  0  0  0  0
   -0.3090   -1.9732   -0.0036 C   0  0  0  0  0  0  0  0  0  0  0  0
    1.0166   -1.7061   -0.0035 C   0  0  0  0  0  0  0  0  0  0  0  0
    1.5013   -0.3865   -0.0031 C   0  0  0  0  0  0  0  0  0  0  0  0
    2.9433   -0.1105   -0.0020 C   0  0  0  0  0  0  0  0  0  0  0  0
    3.8719   -1.1394   -0.0011 C   0  0  0  0  0  0  0  0  0  0  0  0
    5.2358   -0.8370    0.0004 C   0  0  0  0  0  0  0  0  0  0  0  0
    5.6784    0.5600    0.0011 C   0  0  0  0  0  0  0  0  0  0  0  0
    4.7398    1.5928    0.0001 C   0  0  0  0  0  0  0  0  0  0  0  0
    3.3815    1.2879   -0.0014 C   0  0  0  0  0  0  0  0  0  0  0  0
    2.4064    2.3139   -0.0019 C   0  0  0  0  0  0  0  0  0  0  0  0
    1.0879    2.0223   -0.0027 C   0  0  0  0  0  0  0  0  0  0  0  0
    0.6099    0.6994   -0.0031 C   0  0  0  0  0  0  0  0  0  0  0  0
   -0.8312    0.4201   -0.0026 C   0  0  0  0  0  0  0  0  0  0  0  0
   -1.7599    1.4543   -0.0015 C   0  0  0  0  0  0  0  0  0  0  0  0
    7.0626    0.8323    0.0032 C   0  0  0  0  0  0  0  0  0  0  0  0
    7.9481   -0.1975    0.0046 C   0  0  0  0  0  0  0  0  0  0  0  0
    7.5264   -1.5266    0.0039 C   0  0  0  0  0  0  0  0  0  0  0  0
    6.2088   -1.8573    0.0019 C   0  0  0  0  0  0  0  0  0  0  0  0
   -4.9986   -0.4762    0.0014 C   0  0  0  0  0  0  0  0  0  0  0  0
   -4.7764   -2.6169    0.0036 H   0  0  0  0  0  0  0  0  0  0  0  0
   -7.1938   -3.0416   -0.0001 H   0  0  0  0  0  0  0  0  0  0  0  0
   -8.7891   -1.1721    0.0032 H   0  0  0  0  0  0  0  0  0  0  0  0
   -8.0022    1.1360    0.0037 H   0  0  0  0  0  0  0  0  0  0  0  0
   -6.1377    2.7872    0.0033 H   0  0  0  0  0  0  0  0  0  0  0  0
   -3.7733    3.2669    0.0009 H   0  0  0  0  0  0  0  0  0  0  0  0
   -2.9660   -2.2497   -0.0012 H   0  0  0  0  0  0  0  0  0  0  0  0
   -0.6435   -3.0001   -0.0040 H   0  0  0  0  0  0  0  0  0  0  0  0
    1.7196   -2.5260   -0.0034 H   0  0  0  0  0  0  0  0  0  0  0  0
    3.5433   -2.1682   -0.0013 H   0  0  0  0  0  0  0  0  0  0  0  0
    5.0653    2.6225    0.0009 H   0  0  0  0  0  0  0  0  0  0  0  0
    2.7220    3.3468   -0.0014 H   0  0  0  0  0  0  0  0  0  0  0  0
    0.3751    2.8336   -0.0031 H   0  0  0  0  0  0  0  0  0  0  0  0
   -1.4266    2.4816   -0.0018 H   0  0  0  0  0  0  0  0  0  0  0  0
    7.4158    1.8530    0.0034 H   0  0  0  0  0  0  0  0  0  0  0  0
    9.0062    0.0187    0.0058 H   0  0  0  0  0  0  0  0  0  0  0  0
    8.2663   -2.3134    0.0050 H   0  0  0  0  0  0  0  0  0  0  0  0
    5.9087   -2.8947    0.0014 H   0  0  0  0  0  0  0  0  0  0  0  0
  1  2  2  0  0  0  0
  2  3  1  0  0  0  0
  3  4  2  0  0  0  0
  4  5  1  0  0  0  0
  5  6  1  0  0  0  0
  6  7  2  0  0  0  0
  7  8  1  0  0  0  0
  8  9  1  0  0  0  0
  9 10  2  0  0  0  0
 10 11  1  0  0  0  0
 11 12  1  0  0  0  0
 12 13  2  0  0  0  0
 13 14  1  0  0  0  0
 14 15  2  0  0  0  0
 15 16  1  0  0  0  0
 16 17  2  0  0  0  0
 17 18  1  0  0  0  0
 18 19  2  0  0  0  0
 19 20  1  0  0  0  0
 15 20  1  0  0  0  0
 20 21  2  0  0  0  0
 21 22  1  0  0  0  0
 22 23  2  0  0  0  0
 14 23  1  0  0  0  0
 23 24  1  0  0  0  0
 11 24  2  0  0  0  0
 24 25  1  0  0  0  0
  8 25  2  0  0  0  0
 18 26  1  0  0  0  0
 26 27  2  0  0  0  0
 27 28  1  0  0  0  0
 28 29  2  0  0  0  0
 17 29  1  0  0  0  0
  9 30  1  0  0  0  0
  1 30  1  0  0  0  0
  5 30  2  0  0  0  0
  1 31  1  0  0  0  0
  2 32  1  0  0  0  0
  3 33  1  0  0  0  0
  4 34  1  0  0  0  0
  6 35  1  0  0  0  0
  7 36  1  0  0  0  0
 10 37  1  0  0  0  0
 12 38  1  0  0  0  0
 13 39  1  0  0  0  0
 16 40  1  0  0  0  0
 19 41  1  0  0  0  0
 21 42  1  0  0  0  0
 22 43  1  0  0  0  0
 25 44  1  0  0  0  0
 26 45  1  0  0  0  0
 27 46  1  0  0  0  0
 28 47  1  0  0  0  0
 29 48  1  0  0  0  0
M  END
$$$$
