C22H14
APtclcactv01171906213D 0   0.00000     0.00000
 
 36 40  0  0  0  0  0  0  0  0999 V2000
   -3.1770   -1.8126   -0.0005 C   0  0  0  0  0  0  0  0  0  0  0  0
   -4.4947   -2.2128   -0.0008 C   0  0  0  0  0  0  0  0  0  0  0  0
   -5.5170   -1.2731    0.0000 C   0  0  0  0  0  0  0  0  0  0  0  0
   -5.2389    0.0631    0.0006 C   0  0  0  0  0  0  0  0  0  0  0  0
   -3.9077    0.5020    0.0004 C   0  0  0  0  0  0  0  0  0  0  0  0
   -2.8684   -0.4517    0.0005 C   0  0  0  0  0  0  0  0  0  0  0  0
   -1.4710    0.0075    0.0004 C   0  0  0  0  0  0  0  0  0  0  0  0
   -0.4258   -0.8955    0.0001 C   0  0  0  0  0  0  0  0  0  0  0  0
    0.9004   -0.4305   -0.0005 C   0  0  0  0  0  0  0  0  0  0  0  0
    1.9643   -1.3386   -0.0003 C   0  0  0  0  0  0  0  0  0  0  0  0
    3.2737   -0.8681   -0.0004 C   0  0  0  0  0  0  0  0  0  0  0  0
    4.3690   -1.7598    0.0003 C   0  0  0  0  0  0  0  0  0  0  0  0
    5.6335   -1.2675    0.0007 C   0  0  0  0  0  0  0  0  0  0  0  0
    5.8873    0.1052    0.0008 C   0  0  0  0  0  0  0  0  0  0  0  0
    4.8822    1.0168    0.0002 C   0  0  0  0  0  0  0  0  0  0  0  0
    3.5406    0.5750   -0.0007 C   0  0  0  0  0  0  0  0  0  0  0  0
    2.4860    1.4820   -0.0009 C   0  0  0  0  0  0  0  0  0  0  0  0
    1.1673    1.0134   -0.0008 C   0  0  0  0  0  0  0  0  0  0  0  0
    0.0967    1.9212   -0.0006 C   0  0  0  0  0  0  0  0  0  0  0  0
   -1.2076    1.4499    0.0000 C   0  0  0  0  0  0  0  0  0  0  0  0
   -2.3346    2.3817    0.0008 C   0  0  0  0  0  0  0  0  0  0  0  0
   -3.6023    1.9295    0.0000 C   0  0  0  0  0  0  0  0  0  0  0  0
   -2.3864   -2.5483    0.0033 H   0  0  0  0  0  0  0  0  0  0  0  0
   -4.7348   -3.2657   -0.0019 H   0  0  0  0  0  0  0  0  0  0  0  0
   -6.5451   -1.6037   -0.0002 H   0  0  0  0  0  0  0  0  0  0  0  0
   -6.0446    0.7824    0.0009 H   0  0  0  0  0  0  0  0  0  0  0  0
   -0.6274   -1.9566    0.0007 H   0  0  0  0  0  0  0  0  0  0  0  0
    1.7700   -2.4010    0.0003 H   0  0  0  0  0  0  0  0  0  0  0  0
    4.2011   -2.8267    0.0009 H   0  0  0  0  0  0  0  0  0  0  0  0
    6.4657   -1.9559    0.0012 H   0  0  0  0  0  0  0  0  0  0  0  0
    6.9105    0.4507    0.0018 H   0  0  0  0  0  0  0  0  0  0  0  0
    5.1065    2.0733    0.0007 H   0  0  0  0  0  0  0  0  0  0  0  0
    2.6841    2.5437   -0.0011 H   0  0  0  0  0  0  0  0  0  0  0  0
    0.2882    2.9841   -0.0009 H   0  0  0  0  0  0  0  0  0  0  0  0
   -2.1475    3.4454    0.0005 H   0  0  0  0  0  0  0  0  0  0  0  0
   -4.4146    2.6412    0.0007 H   0  0  0  0  0  0  0  0  0  0  0  0
  1  2  2  0  0  0  0
  2  3  1  0  0  0  0
  3  4  2  0  0  0  0
  4  5  1  0  0  0  0
  5  6  1  0  0  0  0
  1  6  1  0  0  0  0
  6  7  2  0  0  0  0
  7  8  1  0  0  0  0
  8  9  2  0  0  0  0
  9 10  1  0  0  0  0
 10 11  2  0  0  0  0
 11 12  1  0  0  0  0
 12 13  2  0  0  0  0
 13 14  1  0  0  0  0
 14 15  2  0  0  0  0
 15 16  1  0  0  0  0
 11 16  1  0  0  0  0
 16 17  2  0  0  0  0
 17 18  1  0  0  0  0
  9 18  1  0  0  0  0
 18 19  2  0  0  0  0
 19 20  1  0  0  0  0
  7 20  1  0  0  0  0
 20 21  2  0  0  0  0
 21 22  1  0  0  0  0
  5 22  2  0  0  0  0
  1 23  1  0  0  0  0
  2 24  1  0  0  0  0
  3 25  1  0  0  0  0
  4 26  1  0  0  0  0
  8 27  1  0  0  0  0
 10 28  1  0  0  0  0
 12 29  1  0  0  0  0
 13 30  1  0  0  0  0
 14 31  1  0  0  0  0
 15 32  1  0  0  0  0
 17 33  1  0  0  0  0
 19 34  1  0  0  0  0
 21 35  1  0  0  0  0
 22 36  1  0  0  0  0
M  END
$$$$
