C30H18
APtclcactv01171906223D 0   0.00000     0.00000
 
 48 54  0  0  0  0  0  0  0  0999 V2000
   -4.8495   -2.2167    0.0010 C   0  0  0  0  0  0  0  0  0  0  0  0
   -5.9493   -1.4380    0.0012 C   0  0  0  0  0  0  0  0  0  0  0  0
   -5.8387    0.0176    0.0011 C   0  0  0  0  0  0  0  0  0  0  0  0
   -6.9859    0.8214    0.0018 C   0  0  0  0  0  0  0  0  0  0  0  0
   -6.8646    2.1810    0.0021 C   0  0  0  0  0  0  0  0  0  0  0  0
   -5.6135    2.7840    0.0012 C   0  0  0  0  0  0  0  0  0  0  0  0
   -4.4679    2.0206   -0.0000 C   0  0  0  0  0  0  0  0  0  0  0  0
   -4.5662    0.6280    0.0007 C   0  0  0  0  0  0  0  0  0  0  0  0
   -3.3640   -0.2163   -0.0000 C   0  0  0  0  0  0  0  0  0  0  0  0
   -3.5121   -1.6276    0.0006 C   0  0  0  0  0  0  0  0  0  0  0  0
   -2.3851   -2.4461    0.0000 C   0  0  0  0  0  0  0  0  0  0  0  0
   -1.1112   -1.8748   -0.0011 C   0  0  0  0  0  0  0  0  0  0  0  0
    0.0427   -2.6920   -0.0012 C   0  0  0  0  0  0  0  0  0  0  0  0
    1.2822   -2.1518   -0.0016 C   0  0  0  0  0  0  0  0  0  0  0  0
    1.4785   -0.7597   -0.0020 C   0  0  0  0  0  0  0  0  0  0  0  0
    2.8295   -0.1852   -0.0016 C   0  0  0  0  0  0  0  0  0  0  0  0
    3.9551   -0.9940   -0.0005 C   0  0  0  0  0  0  0  0  0  0  0  0
    5.2240   -0.4096    0.0004 C   0  0  0  0  0  0  0  0  0  0  0  0
    5.3608    1.0495    0.0002 C   0  0  0  0  0  0  0  0  0  0  0  0
    4.2248    1.8600   -0.0010 C   0  0  0  0  0  0  0  0  0  0  0  0
    2.9620    1.2743   -0.0019 C   0  0  0  0  0  0  0  0  0  0  0  0
    1.7924    2.0716   -0.0026 C   0  0  0  0  0  0  0  0  0  0  0  0
    0.5655    1.5082   -0.0028 C   0  0  0  0  0  0  0  0  0  0  0  0
    0.3780    0.1139   -0.0023 C   0  0  0  0  0  0  0  0  0  0  0  0
   -0.9714   -0.4623   -0.0017 C   0  0  0  0  0  0  0  0  0  0  0  0
   -2.0978    0.3547   -0.0013 C   0  0  0  0  0  0  0  0  0  0  0  0
    6.6557    1.6090    0.0017 C   0  0  0  0  0  0  0  0  0  0  0  0
    7.7393    0.7901    0.0032 C   0  0  0  0  0  0  0  0  0  0  0  0
    7.6087   -0.5982    0.0034 C   0  0  0  0  0  0  0  0  0  0  0  0
    6.3911   -1.2005    0.0020 C   0  0  0  0  0  0  0  0  0  0  0  0
   -4.9579   -3.2912    0.0056 H   0  0  0  0  0  0  0  0  0  0  0  0
   -6.9267   -1.8975    0.0011 H   0  0  0  0  0  0  0  0  0  0  0  0
   -7.9652    0.3660    0.0018 H   0  0  0  0  0  0  0  0  0  0  0  0
   -7.7527    2.7956    0.0026 H   0  0  0  0  0  0  0  0  0  0  0  0
   -5.5387    3.8614    0.0010 H   0  0  0  0  0  0  0  0  0  0  0  0
   -3.4984    2.4964   -0.0014 H   0  0  0  0  0  0  0  0  0  0  0  0
   -2.4965   -3.5204    0.0008 H   0  0  0  0  0  0  0  0  0  0  0  0
   -0.0679   -3.7664   -0.0006 H   0  0  0  0  0  0  0  0  0  0  0  0
    2.1420   -2.8054   -0.0012 H   0  0  0  0  0  0  0  0  0  0  0  0
    3.8518   -2.0691   -0.0000 H   0  0  0  0  0  0  0  0  0  0  0  0
    4.3248    2.9353   -0.0013 H   0  0  0  0  0  0  0  0  0  0  0  0
    1.8828    3.1478   -0.0026 H   0  0  0  0  0  0  0  0  0  0  0  0
   -0.3027    2.1505   -0.0029 H   0  0  0  0  0  0  0  0  0  0  0  0
   -1.9879    1.4291   -0.0021 H   0  0  0  0  0  0  0  0  0  0  0  0
    6.7846    2.6812    0.0012 H   0  0  0  0  0  0  0  0  0  0  0  0
    8.7277    1.2255    0.0040 H   0  0  0  0  0  0  0  0  0  0  0  0
    8.4985   -1.2103    0.0047 H   0  0  0  0  0  0  0  0  0  0  0  0
    6.3177   -2.2780    0.0022 H   0  0  0  0  0  0  0  0  0  0  0  0
  1  2  2  0  0  0  0
  2  3  1  0  0  0  0
  3  4  2  0  0  0  0
  4  5  1  0  0  0  0
  5  6  2  0  0  0  0
  6  7  1  0  0  0  0
  7  8  2  0  0  0  0
  3  8  1  0  0  0  0
  8  9  1  0  0  0  0
  9 10  1  0  0  0  0
  1 10  1  0  0  0  0
 10 11  2  0  0  0  0
 11 12  1  0  0  0  0
 12 13  1  0  0  0  0
 13 14  2  0  0  0  0
 14 15  1  0  0  0  0
 15 16  2  0  0  0  0
 16 17  1  0  0  0  0
 17 18  2  0  0  0  0
 18 19  1  0  0  0  0
 19 20  2  0  0  0  0
 20 21  1  0  0  0  0
 16 21  1  0  0  0  0
 21 22  2  0  0  0  0
 22 23  1  0  0  0  0
 23 24  2  0  0  0  0
 15 24  1  0  0  0  0
 24 25  1  0  0  0  0
 12 25  2  0  0  0  0
 25 26  1  0  0  0  0
  9 26  2  0  0  0  0
 19 27  1  0  0  0  0
 27 28  2  0  0  0  0
 28 29  1  0  0  0  0
 29 30  2  0  0  0  0
 18 30  1  0  0  0  0
  1 31  1  0  0  0  0
  2 32  1  0  0  0  0
  4 33  1  0  0  0  0
  5 34  1  0  0  0  0
  6 35  1  0  0  0  0
  7 36  1  0  0  0  0
 11 37  1  0  0  0  0
 13 38  1  0  0  0  0
 14 39  1  0  0  0  0
 17 40  1  0  0  0  0
 20 41  1  0  0  0  0
 22 42  1  0  0  0  0
 23 43  1  0  0  0  0
 26 44  1  0  0  0  0
 27 45  1  0  0  0  0
 28 46  1  0  0  0  0
 29 47  1  0  0  0  0
 30 48  1  0  0  0  0
M  END
$$$$
