C16H10
APtclcactv01171906233D 0   0.00000     0.00000
 
 26 29  0  0  0  0  0  0  0  0999 V2000
   -2.7906    1.2221    0.0001 C   0  0  0  0  0  0  0  0  0  0  0  0
   -3.4569    0.0000    0.0002 C   0  0  0  0  0  0  0  0  0  0  0  0
   -2.7906   -1.2221   -0.0001 C   0  0  0  0  0  0  0  0  0  0  0  0
   -1.3985   -1.2718   -0.0000 C   0  0  0  0  0  0  0  0  0  0  0  0
   -0.6526    0.0000   -0.0003 C   0  0  0  0  0  0  0  0  0  0  0  0
    0.6527   -0.0000    0.0001 C   0  0  0  0  0  0  0  0  0  0  0  0
    1.3985   -1.2718    0.0002 C   0  0  0  0  0  0  0  0  0  0  0  0
    2.7906   -1.2221   -0.0001 C   0  0  0  0  0  0  0  0  0  0  0  0
    3.4569   -0.0000   -0.0004 C   0  0  0  0  0  0  0  0  0  0  0  0
    2.7906    1.2221    0.0000 C   0  0  0  0  0  0  0  0  0  0  0  0
    1.3985    1.2718   -0.0002 C   0  0  0  0  0  0  0  0  0  0  0  0
    0.6995    2.4758    0.0003 C   0  0  0  0  0  0  0  0  0  0  0  0
   -0.6995    2.4758    0.0003 C   0  0  0  0  0  0  0  0  0  0  0  0
   -1.3985    1.2718   -0.0003 C   0  0  0  0  0  0  0  0  0  0  0  0
    0.6995   -2.4758    0.0010 C   0  0  0  0  0  0  0  0  0  0  0  0
   -0.6995   -2.4758   -0.0008 C   0  0  0  0  0  0  0  0  0  0  0  0
   -3.3585    2.1407   -0.0042 H   0  0  0  0  0  0  0  0  0  0  0  0
   -4.5369    0.0000    0.0008 H   0  0  0  0  0  0  0  0  0  0  0  0
   -3.3585   -2.1407    0.0001 H   0  0  0  0  0  0  0  0  0  0  0  0
    3.3585   -2.1408    0.0002 H   0  0  0  0  0  0  0  0  0  0  0  0
    4.5369   -0.0000   -0.0007 H   0  0  0  0  0  0  0  0  0  0  0  0
    3.3585    2.1407    0.0002 H   0  0  0  0  0  0  0  0  0  0  0  0
    1.2384    3.4118    0.0010 H   0  0  0  0  0  0  0  0  0  0  0  0
   -1.2383    3.4118    0.0014 H   0  0  0  0  0  0  0  0  0  0  0  0
    1.2383   -3.4118    0.0012 H   0  0  0  0  0  0  0  0  0  0  0  0
   -1.2384   -3.4118    0.0003 H   0  0  0  0  0  0  0  0  0  0  0  0
  1  2  2  0  0  0  0
  2  3  1  0  0  0  0
  3  4  2  0  0  0  0
  4  5  1  0  0  0  0
  5  6  2  0  0  0  0
  6  7  1  0  0  0  0
  7  8  2  0  0  0  0
  8  9  1  0  0  0  0
  9 10  2  0  0  0  0
 10 11  1  0  0  0  0
  6 11  1  0  0  0  0
 11 12  2  0  0  0  0
 12 13  1  0  0  0  0
 13 14  2  0  0  0  0
  1 14  1  0  0  0  0
  5 14  1  0  0  0  0
  7 15  1  0  0  0  0
 15 16  2  0  0  0  0
  4 16  1  0  0  0  0
  1 17  1  0  0  0  0
  2 18  1  0  0  0  0
  3 19  1  0  0  0  0
  8 20  1  0  0  0  0
  9 21  1  0  0  0  0
 10 22  1  0  0  0  0
 12 23  1  0  0  0  0
 13 24  1  0  0  0  0
 15 25  1  0  0  0  0
 16 26  1  0  0  0  0
M  END
$$$$
