C34H16
APtclcactv01171906233D 0   0.00000     0.00000
 
 50 59  0  0  0  0  0  0  0  0999 V2000
    2.8679   -3.9886    0.1329 C   0  0  0  0  0  0  0  0  0  0  0  0
    1.5812   -4.3888    0.2285 C   0  0  0  0  0  0  0  0  0  0  0  0
    0.5017   -3.4069    0.1468 C   0  0  0  0  0  0  0  0  0  0  0  0
    0.8224   -2.0282    0.0377 C   0  0  0  0  0  0  0  0  0  0  0  0
    2.1647   -1.6078   -0.0603 C   0  0  0  0  0  0  0  0  0  0  0  0
    2.4913   -0.2325   -0.1642 C   0  0  0  0  0  0  0  0  0  0  0  0
    1.4409    0.7795   -0.0275 C   0  0  0  0  0  0  0  0  0  0  0  0
    1.7148    2.2088    0.1161 C   0  0  0  0  0  0  0  0  0  0  0  0
    0.6607    3.1486    0.0070 C   0  0  0  0  0  0  0  0  0  0  0  0
   -0.7315    2.6889   -0.0760 C   0  0  0  0  0  0  0  0  0  0  0  0
   -1.8041    3.5881   -0.1739 C   0  0  0  0  0  0  0  0  0  0  0  0
   -3.0905    3.1443   -0.1877 C   0  0  0  0  0  0  0  0  0  0  0  0
   -3.3843    1.7709   -0.1106 C   0  0  0  0  0  0  0  0  0  0  0  0
   -4.7129    1.3009   -0.0878 C   0  0  0  0  0  0  0  0  0  0  0  0
   -4.9802   -0.0289   -0.0345 C   0  0  0  0  0  0  0  0  0  0  0  0
   -3.9424   -0.9805   -0.0004 C   0  0  0  0  0  0  0  0  0  0  0  0
   -4.2186   -2.3637    0.0408 C   0  0  0  0  0  0  0  0  0  0  0  0
   -3.2206   -3.2779    0.0868 C   0  0  0  0  0  0  0  0  0  0  0  0
   -1.8649   -2.8746    0.0934 C   0  0  0  0  0  0  0  0  0  0  0  0
   -0.8307   -3.8137    0.1594 C   0  0  0  0  0  0  0  0  0  0  0  0
   -1.5565   -1.4931    0.0331 C   0  0  0  0  0  0  0  0  0  0  0  0
   -0.2121   -1.0766    0.0156 C   0  0  0  0  0  0  0  0  0  0  0  0
    0.1066    0.3487   -0.0076 C   0  0  0  0  0  0  0  0  0  0  0  0
   -0.9920    1.3089   -0.0461 C   0  0  0  0  0  0  0  0  0  0  0  0
   -2.3229    0.8408   -0.0538 C   0  0  0  0  0  0  0  0  0  0  0  0
   -2.6003   -0.5421   -0.0078 C   0  0  0  0  0  0  0  0  0  0  0  0
    0.9524    4.5159    0.0079 C   0  0  0  0  0  0  0  0  0  0  0  0
    2.2325    4.9423    0.2118 C   0  0  0  0  0  0  0  0  0  0  0  0
    3.2488    4.0251    0.4449 C   0  0  0  0  0  0  0  0  0  0  0  0
    2.9939    2.6850    0.4285 C   0  0  0  0  0  0  0  0  0  0  0  0
    3.8185    0.1170   -0.4174 C   0  0  0  0  0  0  0  0  0  0  0  0
    4.8122   -0.8412   -0.4412 C   0  0  0  0  0  0  0  0  0  0  0  0
    4.5183   -2.1762   -0.2496 C   0  0  0  0  0  0  0  0  0  0  0  0
    3.1939   -2.5785   -0.0612 C   0  0  0  0  0  0  0  0  0  0  0  0
    3.6624   -4.7167    0.2049 H   0  0  0  0  0  0  0  0  0  0  0  0
    1.3503   -5.4343    0.3662 H   0  0  0  0  0  0  0  0  0  0  0  0
   -1.6123    4.6488   -0.2393 H   0  0  0  0  0  0  0  0  0  0  0  0
   -3.8977    3.8579   -0.2568 H   0  0  0  0  0  0  0  0  0  0  0  0
   -5.5285    2.0082   -0.1109 H   0  0  0  0  0  0  0  0  0  0  0  0
   -6.0072   -0.3630   -0.0165 H   0  0  0  0  0  0  0  0  0  0  0  0
   -5.2451   -2.6994    0.0335 H   0  0  0  0  0  0  0  0  0  0  0  0
   -3.4626   -4.3296    0.1164 H   0  0  0  0  0  0  0  0  0  0  0  0
   -1.0669   -4.8659    0.2194 H   0  0  0  0  0  0  0  0  0  0  0  0
    0.1676    5.2406   -0.1593 H   0  0  0  0  0  0  0  0  0  0  0  0
    2.4550    5.9986    0.1950 H   0  0  0  0  0  0  0  0  0  0  0  0
    4.2517    4.3744    0.6358 H   0  0  0  0  0  0  0  0  0  0  0  0
    3.7788    2.0047    0.7222 H   0  0  0  0  0  0  0  0  0  0  0  0
    4.0803    1.1355   -0.6610 H   0  0  0  0  0  0  0  0  0  0  0  0
    5.8359   -0.5395   -0.6088 H   0  0  0  0  0  0  0  0  0  0  0  0
    5.3104   -2.9091   -0.2456 H   0  0  0  0  0  0  0  0  0  0  0  0
  1  2  2  0  0  0  0
  2  3  1  0  0  0  0
  3  4  1  0  0  0  0
  4  5  2  0  0  0  0
  5  6  1  0  0  0  0
  6  7  2  0  0  0  0
  7  8  1  0  0  0  0
  8  9  2  0  0  0  0
  9 10  1  0  0  0  0
 10 11  2  0  0  0  0
 11 12  1  0  0  0  0
 12 13  2  0  0  0  0
 13 14  1  0  0  0  0
 14 15  2  0  0  0  0
 15 16  1  0  0  0  0
 16 17  2  0  0  0  0
 17 18  1  0  0  0  0
 18 19  2  0  0  0  0
 19 20  1  0  0  0  0
  3 20  2  0  0  0  0
 19 21  1  0  0  0  0
 21 22  2  0  0  0  0
  4 22  1  0  0  0  0
 22 23  1  0  0  0  0
  7 23  1  0  0  0  0
 23 24  2  0  0  0  0
 10 24  1  0  0  0  0
 24 25  1  0  0  0  0
 13 25  1  0  0  0  0
 25 26  2  0  0  0  0
 21 26  1  0  0  0  0
 16 26  1  0  0  0  0
  9 27  1  0  0  0  0
 27 28  2  0  0  0  0
 28 29  1  0  0  0  0
 29 30  2  0  0  0  0
  8 30  1  0  0  0  0
  6 31  1  0  0  0  0
 31 32  2  0  0  0  0
 32 33  1  0  0  0  0
 33 34  2  0  0  0  0
  1 34  1  0  0  0  0
  5 34  1  0  0  0  0
  1 35  1  0  0  0  0
  2 36  1  0  0  0  0
 11 37  1  0  0  0  0
 12 38  1  0  0  0  0
 14 39  1  0  0  0  0
 15 40  1  0  0  0  0
 17 41  1  0  0  0  0
 18 42  1  0  0  0  0
 20 43  1  0  0  0  0
 27 44  1  0  0  0  0
 28 45  1  0  0  0  0
 29 46  1  0  0  0  0
 30 47  1  0  0  0  0
 31 48  1  0  0  0  0
 32 49  1  0  0  0  0
 33 50  1  0  0  0  0
M  END
$$$$
