C30H18
APtclcactv01171906233D 0   0.00000     0.00000
 
 48 54  0  0  0  0  0  0  0  0999 V2000
   -5.2553   -2.6324    0.0001 C   0  0  0  0  0  0  0  0  0  0  0  0
   -6.5914   -2.8863    0.0009 C   0  0  0  0  0  0  0  0  0  0  0  0
   -7.5312   -1.8579    0.0007 C   0  0  0  0  0  0  0  0  0  0  0  0
   -7.1584   -0.5505    0.0001 C   0  0  0  0  0  0  0  0  0  0  0  0
   -5.7890   -0.2184   -0.0003 C   0  0  0  0  0  0  0  0  0  0  0  0
   -5.3666    1.1145   -0.0005 C   0  0  0  0  0  0  0  0  0  0  0  0
   -4.0080    1.4073   -0.0005 C   0  0  0  0  0  0  0  0  0  0  0  0
   -3.5561    2.7988   -0.0001 C   0  0  0  0  0  0  0  0  0  0  0  0
   -2.2506    3.1150   -0.0001 C   0  0  0  0  0  0  0  0  0  0  0  0
   -1.2111    2.0858   -0.0001 C   0  0  0  0  0  0  0  0  0  0  0  0
    0.1270    2.4461    0.0003 C   0  0  0  0  0  0  0  0  0  0  0  0
    1.1217    1.4530    0.0008 C   0  0  0  0  0  0  0  0  0  0  0  0
    2.4700    1.8110    0.0007 C   0  0  0  0  0  0  0  0  0  0  0  0
    3.4560    0.8183    0.0007 C   0  0  0  0  0  0  0  0  0  0  0  0
    4.8120    1.1744    0.0001 C   0  0  0  0  0  0  0  0  0  0  0  0
    5.7857    0.1830   -0.0003 C   0  0  0  0  0  0  0  0  0  0  0  0
    5.3997   -1.2339   -0.0002 C   0  0  0  0  0  0  0  0  0  0  0  0
    4.0575   -1.5941   -0.0005 C   0  0  0  0  0  0  0  0  0  0  0  0
    3.0694   -0.6000    0.0008 C   0  0  0  0  0  0  0  0  0  0  0  0
    1.7159   -0.9556    0.0000 C   0  0  0  0  0  0  0  0  0  0  0  0
    0.7356    0.0351    0.0009 C   0  0  0  0  0  0  0  0  0  0  0  0
   -0.6280   -0.3163    0.0004 C   0  0  0  0  0  0  0  0  0  0  0  0
   -1.5917    0.6694    0.0000 C   0  0  0  0  0  0  0  0  0  0  0  0
   -3.0249    0.3235   -0.0004 C   0  0  0  0  0  0  0  0  0  0  0  0
   -3.4342   -0.9974   -0.0018 C   0  0  0  0  0  0  0  0  0  0  0  0
   -4.8015   -1.2995   -0.0006 C   0  0  0  0  0  0  0  0  0  0  0  0
    6.4175   -2.2143   -0.0003 C   0  0  0  0  0  0  0  0  0  0  0  0
    7.7181   -1.8289   -0.0004 C   0  0  0  0  0  0  0  0  0  0  0  0
    8.0855   -0.4814    0.0001 C   0  0  0  0  0  0  0  0  0  0  0  0
    7.1602    0.5107   -0.0004 C   0  0  0  0  0  0  0  0  0  0  0  0
   -4.5471   -3.4477    0.0044 H   0  0  0  0  0  0  0  0  0  0  0  0
   -6.9324   -3.9111    0.0014 H   0  0  0  0  0  0  0  0  0  0  0  0
   -8.5824   -2.1055    0.0007 H   0  0  0  0  0  0  0  0  0  0  0  0
   -7.9067    0.2283   -0.0004 H   0  0  0  0  0  0  0  0  0  0  0  0
   -6.0933    1.9135   -0.0009 H   0  0  0  0  0  0  0  0  0  0  0  0
   -4.2900    3.5911   -0.0002 H   0  0  0  0  0  0  0  0  0  0  0  0
   -1.9610    4.1555   -0.0006 H   0  0  0  0  0  0  0  0  0  0  0  0
    0.4054    3.4896   -0.0001 H   0  0  0  0  0  0  0  0  0  0  0  0
    2.7525    2.8534    0.0002 H   0  0  0  0  0  0  0  0  0  0  0  0
    5.0988    2.2156   -0.0003 H   0  0  0  0  0  0  0  0  0  0  0  0
    3.7766   -2.6369   -0.0007 H   0  0  0  0  0  0  0  0  0  0  0  0
    1.4310   -1.9973   -0.0015 H   0  0  0  0  0  0  0  0  0  0  0  0
   -0.9183   -1.3565   -0.0010 H   0  0  0  0  0  0  0  0  0  0  0  0
   -2.7029   -1.7921   -0.0021 H   0  0  0  0  0  0  0  0  0  0  0  0
    6.1615   -3.2635    0.0001 H   0  0  0  0  0  0  0  0  0  0  0  0
    8.4901   -2.5841   -0.0004 H   0  0  0  0  0  0  0  0  0  0  0  0
    9.1340   -0.2224    0.0007 H   0  0  0  0  0  0  0  0  0  0  0  0
    7.4723    1.5446   -0.0000 H   0  0  0  0  0  0  0  0  0  0  0  0
  1  2  2  0  0  0  0
  2  3  1  0  0  0  0
  3  4  2  0  0  0  0
  4  5  1  0  0  0  0
  5  6  2  0  0  0  0
  6  7  1  0  0  0  0
  7  8  2  0  0  0  0
  8  9  1  0  0  0  0
  9 10  2  0  0  0  0
 10 11  1  0  0  0  0
 11 12  2  0  0  0  0
 12 13  1  0  0  0  0
 13 14  2  0  0  0  0
 14 15  1  0  0  0  0
 15 16  2  0  0  0  0
 16 17  1  0  0  0  0
 17 18  2  0  0  0  0
 18 19  1  0  0  0  0
 14 19  1  0  0  0  0
 19 20  2  0  0  0  0
 20 21  1  0  0  0  0
 12 21  1  0  0  0  0
 21 22  2  0  0  0  0
 22 23  1  0  0  0  0
 10 23  1  0  0  0  0
 23 24  2  0  0  0  0
  7 24  1  0  0  0  0
 24 25  1  0  0  0  0
 25 26  2  0  0  0  0
  1 26  1  0  0  0  0
  5 26  1  0  0  0  0
 17 27  1  0  0  0  0
 27 28  2  0  0  0  0
 28 29  1  0  0  0  0
 29 30  2  0  0  0  0
 16 30  1  0  0  0  0
  1 31  1  0  0  0  0
  2 32  1  0  0  0  0
  3 33  1  0  0  0  0
  4 34  1  0  0  0  0
  6 35  1  0  0  0  0
  8 36  1  0  0  0  0
  9 37  1  0  0  0  0
 11 38  1  0  0  0  0
 13 39  1  0  0  0  0
 15 40  1  0  0  0  0
 18 41  1  0  0  0  0
 20 42  1  0  0  0  0
 22 43  1  0  0  0  0
 25 44  1  0  0  0  0
 27 45  1  0  0  0  0
 28 46  1  0  0  0  0
 29 47  1  0  0  0  0
 30 48  1  0  0  0  0
M  END
$$$$
