C30H18
APtclcactv01171906233D 0   0.00000     0.00000
 
 48 54  0  0  0  0  0  0  0  0999 V2000
   -5.5306   -2.2917   -0.0002 C   0  0  0  0  0  0  0  0  0  0  0  0
   -6.8883   -2.3624   -0.0007 C   0  0  0  0  0  0  0  0  0  0  0  0
   -7.6807   -1.2164   -0.0006 C   0  0  0  0  0  0  0  0  0  0  0  0
   -7.1347    0.0284    0.0002 C   0  0  0  0  0  0  0  0  0  0  0  0
   -5.7330    0.1725    0.0008 C   0  0  0  0  0  0  0  0  0  0  0  0
   -5.1350    1.4358    0.0011 C   0  0  0  0  0  0  0  0  0  0  0  0
   -3.7490    1.5424    0.0012 C   0  0  0  0  0  0  0  0  0  0  0  0
   -3.1128    2.8596    0.0011 C   0  0  0  0  0  0  0  0  0  0  0  0
   -1.7764    2.9959    0.0003 C   0  0  0  0  0  0  0  0  0  0  0  0
   -0.8873    1.8348   -0.0005 C   0  0  0  0  0  0  0  0  0  0  0  0
    0.4900    2.0099   -0.0014 C   0  0  0  0  0  0  0  0  0  0  0  0
    1.3362    0.8922   -0.0016 C   0  0  0  0  0  0  0  0  0  0  0  0
    2.7292    1.0611   -0.0015 C   0  0  0  0  0  0  0  0  0  0  0  0
    3.5557   -0.0475   -0.0008 C   0  0  0  0  0  0  0  0  0  0  0  0
    5.0187    0.1008   -0.0001 C   0  0  0  0  0  0  0  0  0  0  0  0
    5.8287   -1.0539    0.0010 C   0  0  0  0  0  0  0  0  0  0  0  0
    5.2226   -2.3819    0.0010 C   0  0  0  0  0  0  0  0  0  0  0  0
    3.8869   -2.5503   -0.0000 C   0  0  0  0  0  0  0  0  0  0  0  0
    2.9873   -1.3977   -0.0002 C   0  0  0  0  0  0  0  0  0  0  0  0
    1.6098   -1.5746   -0.0013 C   0  0  0  0  0  0  0  0  0  0  0  0
    0.7639   -0.4580   -0.0010 C   0  0  0  0  0  0  0  0  0  0  0  0
   -0.6311   -0.6237   -0.0016 C   0  0  0  0  0  0  0  0  0  0  0  0
   -1.4549    0.4847    0.0002 C   0  0  0  0  0  0  0  0  0  0  0  0
   -2.9214    0.3358    0.0010 C   0  0  0  0  0  0  0  0  0  0  0  0
   -3.5056   -0.9180    0.0010 C   0  0  0  0  0  0  0  0  0  0  0  0
   -4.9006   -1.0323    0.0006 C   0  0  0  0  0  0  0  0  0  0  0  0
    7.2232   -0.9107    0.0016 C   0  0  0  0  0  0  0  0  0  0  0  0
    7.7811    0.3348    0.0011 C   0  0  0  0  0  0  0  0  0  0  0  0
    6.9844    1.4724    0.0005 C   0  0  0  0  0  0  0  0  0  0  0  0
    5.6119    1.3640   -0.0011 C   0  0  0  0  0  0  0  0  0  0  0  0
   -4.9392   -3.1953    0.0042 H   0  0  0  0  0  0  0  0  0  0  0  0
   -7.3648   -3.3316   -0.0017 H   0  0  0  0  0  0  0  0  0  0  0  0
   -8.7557   -1.3196   -0.0014 H   0  0  0  0  0  0  0  0  0  0  0  0
   -7.7709    0.9012   -0.0001 H   0  0  0  0  0  0  0  0  0  0  0  0
   -5.7473    2.3255    0.0009 H   0  0  0  0  0  0  0  0  0  0  0  0
   -3.7326    3.7440    0.0012 H   0  0  0  0  0  0  0  0  0  0  0  0
   -1.3481    3.9873   -0.0002 H   0  0  0  0  0  0  0  0  0  0  0  0
    0.9087    3.0054   -0.0022 H   0  0  0  0  0  0  0  0  0  0  0  0
    3.1545    2.0538   -0.0023 H   0  0  0  0  0  0  0  0  0  0  0  0
    5.8624   -3.2520    0.0015 H   0  0  0  0  0  0  0  0  0  0  0  0
    3.4750   -3.5486   -0.0003 H   0  0  0  0  0  0  0  0  0  0  0  0
    1.1919   -2.5704   -0.0022 H   0  0  0  0  0  0  0  0  0  0  0  0
   -1.0584   -1.6156   -0.0030 H   0  0  0  0  0  0  0  0  0  0  0  0
   -2.8885   -1.8043    0.0002 H   0  0  0  0  0  0  0  0  0  0  0  0
    7.8560   -1.7859    0.0029 H   0  0  0  0  0  0  0  0  0  0  0  0
    8.8563    0.4371    0.0016 H   0  0  0  0  0  0  0  0  0  0  0  0
    7.4450    2.4493    0.0008 H   0  0  0  0  0  0  0  0  0  0  0  0
    4.9974    2.2522   -0.0016 H   0  0  0  0  0  0  0  0  0  0  0  0
  1  2  2  0  0  0  0
  2  3  1  0  0  0  0
  3  4  2  0  0  0  0
  4  5  1  0  0  0  0
  5  6  2  0  0  0  0
  6  7  1  0  0  0  0
  7  8  2  0  0  0  0
  8  9  1  0  0  0  0
  9 10  2  0  0  0  0
 10 11  1  0  0  0  0
 11 12  2  0  0  0  0
 12 13  1  0  0  0  0
 13 14  2  0  0  0  0
 14 15  1  0  0  0  0
 15 16  2  0  0  0  0
 16 17  1  0  0  0  0
 17 18  2  0  0  0  0
 18 19  1  0  0  0  0
 14 19  1  0  0  0  0
 19 20  2  0  0  0  0
 20 21  1  0  0  0  0
 12 21  1  0  0  0  0
 21 22  2  0  0  0  0
 22 23  1  0  0  0  0
 10 23  1  0  0  0  0
 23 24  2  0  0  0  0
  7 24  1  0  0  0  0
 24 25  1  0  0  0  0
 25 26  2  0  0  0  0
  1 26  1  0  0  0  0
  5 26  1  0  0  0  0
 16 27  1  0  0  0  0
 27 28  2  0  0  0  0
 28 29  1  0  0  0  0
 29 30  2  0  0  0  0
 15 30  1  0  0  0  0
  1 31  1  0  0  0  0
  2 32  1  0  0  0  0
  3 33  1  0  0  0  0
  4 34  1  0  0  0  0
  6 35  1  0  0  0  0
  8 36  1  0  0  0  0
  9 37  1  0  0  0  0
 11 38  1  0  0  0  0
 13 39  1  0  0  0  0
 17 40  1  0  0  0  0
 18 41  1  0  0  0  0
 20 42  1  0  0  0  0
 22 43  1  0  0  0  0
 25 44  1  0  0  0  0
 27 45  1  0  0  0  0
 28 46  1  0  0  0  0
 29 47  1  0  0  0  0
 30 48  1  0  0  0  0
M  END
$$$$
