C20H12
APtclcactv01171906233D 0   0.00000     0.00000
 
 32 36  0  0  0  0  0  0  0  0999 V2000
    1.2150   -2.5328   -0.0016 C   0  0  0  0  0  0  0  0  0  0  0  0
    0.0512   -3.2796    0.0003 C   0  0  0  0  0  0  0  0  0  0  0  0
   -1.2146   -2.7033    0.0014 C   0  0  0  0  0  0  0  0  0  0  0  0
   -1.3420   -1.3208    0.0007 C   0  0  0  0  0  0  0  0  0  0  0  0
   -2.4473   -0.3419    0.0009 C   0  0  0  0  0  0  0  0  0  0  0  0
   -3.8317   -0.4971    0.0025 C   0  0  0  0  0  0  0  0  0  0  0  0
   -4.6558    0.6084    0.0016 C   0  0  0  0  0  0  0  0  0  0  0  0
   -4.1174    1.8848   -0.0013 C   0  0  0  0  0  0  0  0  0  0  0  0
   -2.7497    2.0638   -0.0021 C   0  0  0  0  0  0  0  0  0  0  0  0
   -1.8989    0.9626   -0.0010 C   0  0  0  0  0  0  0  0  0  0  0  0
   -0.4258    0.8416   -0.0006 C   0  0  0  0  0  0  0  0  0  0  0  0
    0.6413    1.6897   -0.0011 C   0  0  0  0  0  0  0  0  0  0  0  0
    1.9660    1.1887   -0.0001 C   0  0  0  0  0  0  0  0  0  0  0  0
    2.2430   -0.2025   -0.0011 C   0  0  0  0  0  0  0  0  0  0  0  0
    1.1178   -1.1401   -0.0019 C   0  0  0  0  0  0  0  0  0  0  0  0
   -0.1580   -0.5847   -0.0010 C   0  0  0  0  0  0  0  0  0  0  0  0
    3.5644   -0.6482   -0.0017 C   0  0  0  0  0  0  0  0  0  0  0  0
    4.5880    0.2563    0.0001 C   0  0  0  0  0  0  0  0  0  0  0  0
    4.3255    1.6214    0.0029 C   0  0  0  0  0  0  0  0  0  0  0  0
    3.0462    2.0894    0.0025 C   0  0  0  0  0  0  0  0  0  0  0  0
    2.1802   -3.0173    0.0018 H   0  0  0  0  0  0  0  0  0  0  0  0
    0.1284   -4.3568    0.0005 H   0  0  0  0  0  0  0  0  0  0  0  0
   -2.0951   -3.3288    0.0025 H   0  0  0  0  0  0  0  0  0  0  0  0
   -4.2615   -1.4879    0.0041 H   0  0  0  0  0  0  0  0  0  0  0  0
   -5.7279    0.4784    0.0028 H   0  0  0  0  0  0  0  0  0  0  0  0
   -4.7718    2.7440   -0.0033 H   0  0  0  0  0  0  0  0  0  0  0  0
   -2.3377    3.0621   -0.0039 H   0  0  0  0  0  0  0  0  0  0  0  0
    0.4745    2.7568   -0.0027 H   0  0  0  0  0  0  0  0  0  0  0  0
    3.7782   -1.7068   -0.0032 H   0  0  0  0  0  0  0  0  0  0  0  0
    5.6103   -0.0922   -0.0002 H   0  0  0  0  0  0  0  0  0  0  0  0
    5.1480    2.3213    0.0055 H   0  0  0  0  0  0  0  0  0  0  0  0
    2.8611    3.1534    0.0041 H   0  0  0  0  0  0  0  0  0  0  0  0
  1  2  2  0  0  0  0
  2  3  1  0  0  0  0
  3  4  2  0  0  0  0
  4  5  1  0  0  0  0
  5  6  1  0  0  0  0
  6  7  2  0  0  0  0
  7  8  1  0  0  0  0
  8  9  2  0  0  0  0
  9 10  1  0  0  0  0
  5 10  2  0  0  0  0
 10 11  1  0  0  0  0
 11 12  1  0  0  0  0
 12 13  2  0  0  0  0
 13 14  1  0  0  0  0
 14 15  2  0  0  0  0
  1 15  1  0  0  0  0
 15 16  1  0  0  0  0
  4 16  1  0  0  0  0
 11 16  2  0  0  0  0
 14 17  1  0  0  0  0
 17 18  2  0  0  0  0
 18 19  1  0  0  0  0
 19 20  2  0  0  0  0
 13 20  1  0  0  0  0
  1 21  1  0  0  0  0
  2 22  1  0  0  0  0
  3 23  1  0  0  0  0
  6 24  1  0  0  0  0
  7 25  1  0  0  0  0
  8 26  1  0  0  0  0
  9 27  1  0  0  0  0
 12 28  1  0  0  0  0
 17 29  1  0  0  0  0
 18 30  1  0  0  0  0
 19 31  1  0  0  0  0
 20 32  1  0  0  0  0
M  END
$$$$
