C36H16
APtclcactv01171906243D 0   0.00000     0.00000
 
 52 62  0  0  0  0  0  0  0  0999 V2000
   -3.2679    1.6312    0.0004 C   0  0  0  0  0  0  0  0  0  0  0  0
   -3.9621    0.4039    0.0002 C   0  0  0  0  0  0  0  0  0  0  0  0
   -3.2279   -0.8720    0.0002 C   0  0  0  0  0  0  0  0  0  0  0  0
   -3.8967   -2.1002   -0.0001 C   0  0  0  0  0  0  0  0  0  0  0  0
   -3.2090   -3.2796    0.0000 C   0  0  0  0  0  0  0  0  0  0  0  0
   -1.8073   -3.2993   -0.0000 C   0  0  0  0  0  0  0  0  0  0  0  0
   -1.0779   -4.5111    0.0007 C   0  0  0  0  0  0  0  0  0  0  0  0
    0.2750   -4.5207    0.0010 C   0  0  0  0  0  0  0  0  0  0  0  0
    1.0142   -3.3116    0.0007 C   0  0  0  0  0  0  0  0  0  0  0  0
    2.4106   -3.3070    0.0006 C   0  0  0  0  0  0  0  0  0  0  0  0
    3.1241   -2.1049    0.0002 C   0  0  0  0  0  0  0  0  0  0  0  0
    4.5391   -2.0741   -0.0000 C   0  0  0  0  0  0  0  0  0  0  0  0
    5.2122   -0.8979   -0.0005 C   0  0  0  0  0  0  0  0  0  0  0  0
    4.5344    0.3410   -0.0008 C   0  0  0  0  0  0  0  0  0  0  0  0
    5.2217    1.5672   -0.0005 C   0  0  0  0  0  0  0  0  0  0  0  0
    4.5519    2.7523    0.0002 C   0  0  0  0  0  0  0  0  0  0  0  0
    3.1467    2.7944    0.0002 C   0  0  0  0  0  0  0  0  0  0  0  0
    2.4312    4.0113    0.0015 C   0  0  0  0  0  0  0  0  0  0  0  0
    1.0753    4.0380    0.0019 C   0  0  0  0  0  0  0  0  0  0  0  0
    0.3224    2.8411    0.0014 C   0  0  0  0  0  0  0  0  0  0  0  0
   -1.0790    2.8414    0.0016 C   0  0  0  0  0  0  0  0  0  0  0  0
   -1.7940    1.6489   -0.0004 C   0  0  0  0  0  0  0  0  0  0  0  0
   -1.1044    0.4149   -0.0027 C   0  0  0  0  0  0  0  0  0  0  0  0
   -1.8208   -0.8558    0.0000 C   0  0  0  0  0  0  0  0  0  0  0  0
   -1.1047   -2.0724   -0.0003 C   0  0  0  0  0  0  0  0  0  0  0  0
    0.3056   -2.0826    0.0000 C   0  0  0  0  0  0  0  0  0  0  0  0
    1.0157   -0.8709    0.0004 C   0  0  0  0  0  0  0  0  0  0  0  0
    2.4212   -0.8744   -0.0005 C   0  0  0  0  0  0  0  0  0  0  0  0
    3.1219    0.3499   -0.0010 C   0  0  0  0  0  0  0  0  0  0  0  0
    2.4280    1.5783   -0.0007 C   0  0  0  0  0  0  0  0  0  0  0  0
    1.0183    1.6083    0.0001 C   0  0  0  0  0  0  0  0  0  0  0  0
    0.2995    0.4004   -0.0025 C   0  0  0  0  0  0  0  0  0  0  0  0
   -5.3600    0.4048    0.0004 C   0  0  0  0  0  0  0  0  0  0  0  0
   -6.0476    1.5965    0.0009 C   0  0  0  0  0  0  0  0  0  0  0  0
   -5.3635    2.8043    0.0011 C   0  0  0  0  0  0  0  0  0  0  0  0
   -3.9870    2.8278   -0.0045 C   0  0  0  0  0  0  0  0  0  0  0  0
   -4.9766   -2.1160   -0.0000 H   0  0  0  0  0  0  0  0  0  0  0  0
   -3.7535   -4.2123    0.0005 H   0  0  0  0  0  0  0  0  0  0  0  0
   -1.6127   -5.4494    0.0013 H   0  0  0  0  0  0  0  0  0  0  0  0
    0.7999   -5.4646    0.0020 H   0  0  0  0  0  0  0  0  0  0  0  0
    2.9465   -4.2447    0.0011 H   0  0  0  0  0  0  0  0  0  0  0  0
    5.0910   -3.0024    0.0006 H   0  0  0  0  0  0  0  0  0  0  0  0
    6.2921   -0.9083   -0.0003 H   0  0  0  0  0  0  0  0  0  0  0  0
    6.3017    1.5692   -0.0005 H   0  0  0  0  0  0  0  0  0  0  0  0
    5.1100    3.6769    0.0012 H   0  0  0  0  0  0  0  0  0  0  0  0
    2.9767    4.9434    0.0026 H   0  0  0  0  0  0  0  0  0  0  0  0
    0.5625    4.9885    0.0029 H   0  0  0  0  0  0  0  0  0  0  0  0
   -1.6112    3.7812    0.0027 H   0  0  0  0  0  0  0  0  0  0  0  0
   -5.9004   -0.5302   -0.0001 H   0  0  0  0  0  0  0  0  0  0  0  0
   -7.1276    1.5922    0.0007 H   0  0  0  0  0  0  0  0  0  0  0  0
   -5.9153    3.7326    0.0014 H   0  0  0  0  0  0  0  0  0  0  0  0
   -3.4633    3.7723   -0.0039 H   0  0  0  0  0  0  0  0  0  0  0  0
  1  2  2  0  0  0  0
  2  3  1  0  0  0  0
  3  4  2  0  0  0  0
  4  5  1  0  0  0  0
  5  6  2  0  0  0  0
  6  7  1  0  0  0  0
  7  8  2  0  0  0  0
  8  9  1  0  0  0  0
  9 10  2  0  0  0  0
 10 11  1  0  0  0  0
 11 12  2  0  0  0  0
 12 13  1  0  0  0  0
 13 14  2  0  0  0  0
 14 15  1  0  0  0  0
 15 16  2  0  0  0  0
 16 17  1  0  0  0  0
 17 18  2  0  0  0  0
 18 19  1  0  0  0  0
 19 20  2  0  0  0  0
 20 21  1  0  0  0  0
 21 22  2  0  0  0  0
  1 22  1  0  0  0  0
 22 23  1  0  0  0  0
 23 24  2  0  0  0  0
  3 24  1  0  0  0  0
 24 25  1  0  0  0  0
  6 25  1  0  0  0  0
 25 26  2  0  0  0  0
  9 26  1  0  0  0  0
 26 27  1  0  0  0  0
 27 28  2  0  0  0  0
 11 28  1  0  0  0  0
 28 29  1  0  0  0  0
 14 29  1  0  0  0  0
 29 30  2  0  0  0  0
 17 30  1  0  0  0  0
 30 31  1  0  0  0  0
 20 31  1  0  0  0  0
 31 32  2  0  0  0  0
 23 32  1  0  0  0  0
 27 32  1  0  0  0  0
  2 33  1  0  0  0  0
 33 34  2  0  0  0  0
 34 35  1  0  0  0  0
 35 36  2  0  0  0  0
  1 36  1  0  0  0  0
  4 37  1  0  0  0  0
  5 38  1  0  0  0  0
  7 39  1  0  0  0  0
  8 40  1  0  0  0  0
 10 41  1  0  0  0  0
 12 42  1  0  0  0  0
 13 43  1  0  0  0  0
 15 44  1  0  0  0  0
 16 45  1  0  0  0  0
 18 46  1  0  0  0  0
 19 47  1  0  0  0  0
 21 48  1  0  0  0  0
 33 49  1  0  0  0  0
 34 50  1  0  0  0  0
 35 51  1  0  0  0  0
 36 52  1  0  0  0  0
M  END
$$$$
