C20H12
APtclcactv01171906243D 0   0.00000     0.00000
 
 32 36  0  0  0  0  0  0  0  0999 V2000
   -0.7187   -2.1953    0.0223 C   0  0  0  0  0  0  0  0  0  0  0  0
   -2.0418   -2.5160    0.0164 C   0  0  0  0  0  0  0  0  0  0  0  0
   -2.8239   -1.2798    0.0027 C   0  0  0  0  0  0  0  0  0  0  0  0
   -4.1640   -0.9132   -0.0103 C   0  0  0  0  0  0  0  0  0  0  0  0
   -4.5121    0.4360   -0.0197 C   0  0  0  0  0  0  0  0  0  0  0  0
   -3.5909    1.4478   -0.0169 C   0  0  0  0  0  0  0  0  0  0  0  0
   -2.2196    1.1231   -0.0047 C   0  0  0  0  0  0  0  0  0  0  0  0
   -1.1746    2.0519    0.0011 C   0  0  0  0  0  0  0  0  0  0  0  0
    0.1491    1.5899    0.0082 C   0  0  0  0  0  0  0  0  0  0  0  0
    1.2400    2.5647    0.0153 C   0  0  0  0  0  0  0  0  0  0  0  0
    2.5278    2.1694    0.0118 C   0  0  0  0  0  0  0  0  0  0  0  0
    2.8769    0.7533    0.0015 C   0  0  0  0  0  0  0  0  0  0  0  0
    1.8558   -0.2230    0.0027 C   0  0  0  0  0  0  0  0  0  0  0  0
    0.4557    0.2026    0.0077 C   0  0  0  0  0  0  0  0  0  0  0  0
   -0.5853   -0.7407    0.0122 C   0  0  0  0  0  0  0  0  0  0  0  0
   -1.8861   -0.2355    0.0030 C   0  0  0  0  0  0  0  0  0  0  0  0
    2.1983   -1.5790   -0.0042 C   0  0  0  0  0  0  0  0  0  0  0  0
    3.5137   -1.9456   -0.0154 C   0  0  0  0  0  0  0  0  0  0  0  0
    4.5193   -0.9866   -0.0196 C   0  0  0  0  0  0  0  0  0  0  0  0
    4.2169    0.3444   -0.0111 C   0  0  0  0  0  0  0  0  0  0  0  0
    0.0987   -2.9010    0.0367 H   0  0  0  0  0  0  0  0  0  0  0  0
   -2.4468   -3.5172    0.0206 H   0  0  0  0  0  0  0  0  0  0  0  0
   -4.9333   -1.6713   -0.0134 H   0  0  0  0  0  0  0  0  0  0  0  0
   -5.5603    0.6959   -0.0301 H   0  0  0  0  0  0  0  0  0  0  0  0
   -3.9099    2.4796   -0.0242 H   0  0  0  0  0  0  0  0  0  0  0  0
   -1.3843    3.1114   -0.0003 H   0  0  0  0  0  0  0  0  0  0  0  0
    1.0089    3.6196    0.0231 H   0  0  0  0  0  0  0  0  0  0  0  0
    3.3126    2.9113    0.0164 H   0  0  0  0  0  0  0  0  0  0  0  0
    1.4254   -2.3333   -0.0003 H   0  0  0  0  0  0  0  0  0  0  0  0
    3.7756   -2.9933   -0.0207 H   0  0  0  0  0  0  0  0  0  0  0  0
    5.5533   -1.2983   -0.0293 H   0  0  0  0  0  0  0  0  0  0  0  0
    5.0079    1.0798   -0.0138 H   0  0  0  0  0  0  0  0  0  0  0  0
  1  2  2  0  0  0  0
  2  3  1  0  0  0  0
  3  4  2  0  0  0  0
  4  5  1  0  0  0  0
  5  6  2  0  0  0  0
  6  7  1  0  0  0  0
  7  8  2  0  0  0  0
  8  9  1  0  0  0  0
  9 10  2  0  0  0  0
 10 11  1  0  0  0  0
 11 12  2  0  0  0  0
 12 13  1  0  0  0  0
 13 14  2  0  0  0  0
  9 14  1  0  0  0  0
 14 15  1  0  0  0  0
  1 15  1  0  0  0  0
 15 16  2  0  0  0  0
  3 16  1  0  0  0  0
  7 16  1  0  0  0  0
 13 17  1  0  0  0  0
 17 18  2  0  0  0  0
 18 19  1  0  0  0  0
 19 20  2  0  0  0  0
 12 20  1  0  0  0  0
  1 21  1  0  0  0  0
  2 22  1  0  0  0  0
  4 23  1  0  0  0  0
  5 24  1  0  0  0  0
  6 25  1  0  0  0  0
  8 26  1  0  0  0  0
 10 27  1  0  0  0  0
 11 28  1  0  0  0  0
 17 29  1  0  0  0  0
 18 30  1  0  0  0  0
 19 31  1  0  0  0  0
 20 32  1  0  0  0  0
M  END
$$$$
