C30H18
APtclcactv01171906223D 0   0.00000     0.00000
 
 48 54  0  0  0  0  0  0  0  0999 V2000
   -6.9303    1.5979   -0.0018 C   0  0  0  0  0  0  0  0  0  0  0  0
   -7.7634    0.5165   -0.0044 C   0  0  0  0  0  0  0  0  0  0  0  0
   -7.2539   -0.7761   -0.0051 C   0  0  0  0  0  0  0  0  0  0  0  0
   -5.9052   -0.9963   -0.0027 C   0  0  0  0  0  0  0  0  0  0  0  0
   -5.0282    0.0892   -0.0001 C   0  0  0  0  0  0  0  0  0  0  0  0
   -5.5431    1.4043    0.0001 C   0  0  0  0  0  0  0  0  0  0  0  0
   -4.6225    2.5359    0.0019 C   0  0  0  0  0  0  0  0  0  0  0  0
   -3.2886    2.3392    0.0026 C   0  0  0  0  0  0  0  0  0  0  0  0
   -2.7297    1.0383    0.0023 C   0  0  0  0  0  0  0  0  0  0  0  0
   -1.3413    0.8715    0.0028 C   0  0  0  0  0  0  0  0  0  0  0  0
   -0.7968   -0.4036    0.0022 C   0  0  0  0  0  0  0  0  0  0  0  0
    0.6646   -0.5923    0.0021 C   0  0  0  0  0  0  0  0  0  0  0  0
    1.5179    0.4925    0.0024 C   0  0  0  0  0  0  0  0  0  0  0  0
    2.9093    0.2881    0.0016 C   0  0  0  0  0  0  0  0  0  0  0  0
    3.7806    1.3814    0.0013 C   0  0  0  0  0  0  0  0  0  0  0  0
    5.1560    1.1684    0.0001 C   0  0  0  0  0  0  0  0  0  0  0  0
    6.0618    2.2517   -0.0007 C   0  0  0  0  0  0  0  0  0  0  0  0
    7.3969    2.0085   -0.0024 C   0  0  0  0  0  0  0  0  0  0  0  0
    7.9067    0.7092   -0.0039 C   0  0  0  0  0  0  0  0  0  0  0  0
    7.0928   -0.3767   -0.0036 C   0  0  0  0  0  0  0  0  0  0  0  0
    5.6919   -0.1977   -0.0009 C   0  0  0  0  0  0  0  0  0  0  0  0
    4.8284   -1.2887   -0.0001 C   0  0  0  0  0  0  0  0  0  0  0  0
    3.4452   -1.0788    0.0007 C   0  0  0  0  0  0  0  0  0  0  0  0
    2.5657   -2.1738    0.0011 C   0  0  0  0  0  0  0  0  0  0  0  0
    1.1963   -1.9582    0.0012 C   0  0  0  0  0  0  0  0  0  0  0  0
    0.2664   -3.0878    0.0011 C   0  0  0  0  0  0  0  0  0  0  0  0
   -1.0636   -2.8865    0.0007 C   0  0  0  0  0  0  0  0  0  0  0  0
   -1.6386   -1.5431    0.0013 C   0  0  0  0  0  0  0  0  0  0  0  0
   -3.0242   -1.3787    0.0004 C   0  0  0  0  0  0  0  0  0  0  0  0
   -3.5721   -0.1013    0.0019 C   0  0  0  0  0  0  0  0  0  0  0  0
   -7.3387    2.5976   -0.0058 H   0  0  0  0  0  0  0  0  0  0  0  0
   -8.8328    0.6678   -0.0056 H   0  0  0  0  0  0  0  0  0  0  0  0
   -7.9318   -1.6168   -0.0071 H   0  0  0  0  0  0  0  0  0  0  0  0
   -5.5200   -2.0052   -0.0026 H   0  0  0  0  0  0  0  0  0  0  0  0
   -5.0138    3.5425    0.0022 H   0  0  0  0  0  0  0  0  0  0  0  0
   -2.6301    3.1953    0.0032 H   0  0  0  0  0  0  0  0  0  0  0  0
   -0.6934    1.7356    0.0033 H   0  0  0  0  0  0  0  0  0  0  0  0
    1.1181    1.4957    0.0028 H   0  0  0  0  0  0  0  0  0  0  0  0
    3.3879    2.3875    0.0017 H   0  0  0  0  0  0  0  0  0  0  0  0
    5.6943    3.2673   -0.0003 H   0  0  0  0  0  0  0  0  0  0  0  0
    8.0832    2.8425   -0.0030 H   0  0  0  0  0  0  0  0  0  0  0  0
    8.9769    0.5642   -0.0056 H   0  0  0  0  0  0  0  0  0  0  0  0
    7.5136   -1.3714   -0.0054 H   0  0  0  0  0  0  0  0  0  0  0  0
    5.2244   -2.2935   -0.0023 H   0  0  0  0  0  0  0  0  0  0  0  0
    2.9552   -3.1811    0.0008 H   0  0  0  0  0  0  0  0  0  0  0  0
    0.6528   -4.0963    0.0010 H   0  0  0  0  0  0  0  0  0  0  0  0
   -1.7242   -3.7408    0.0005 H   0  0  0  0  0  0  0  0  0  0  0  0
   -3.6708   -2.2437   -0.0009 H   0  0  0  0  0  0  0  0  0  0  0  0
  1  2  2  0  0  0  0
  2  3  1  0  0  0  0
  3  4  2  0  0  0  0
  4  5  1  0  0  0  0
  5  6  2  0  0  0  0
  1  6  1  0  0  0  0
  6  7  1  0  0  0  0
  7  8  2  0  0  0  0
  8  9  1  0  0  0  0
  9 10  2  0  0  0  0
 10 11  1  0  0  0  0
 11 12  2  0  0  0  0
 12 13  1  0  0  0  0
 13 14  2  0  0  0  0
 14 15  1  0  0  0  0
 15 16  2  0  0  0  0
 16 17  1  0  0  0  0
 17 18  2  0  0  0  0
 18 19  1  0  0  0  0
 19 20  2  0  0  0  0
 20 21  1  0  0  0  0
 16 21  1  0  0  0  0
 21 22  2  0  0  0  0
 22 23  1  0  0  0  0
 14 23  1  0  0  0  0
 23 24  2  0  0  0  0
 24 25  1  0  0  0  0
 12 25  1  0  0  0  0
 25 26  2  0  0  0  0
 26 27  1  0  0  0  0
 27 28  2  0  0  0  0
 11 28  1  0  0  0  0
 28 29  1  0  0  0  0
 29 30  2  0  0  0  0
  5 30  1  0  0  0  0
  9 30  1  0  0  0  0
  1 31  1  0  0  0  0
  2 32  1  0  0  0  0
  3 33  1  0  0  0  0
  4 34  1  0  0  0  0
  7 35  1  0  0  0  0
  8 36  1  0  0  0  0
 10 37  1  0  0  0  0
 13 38  1  0  0  0  0
 15 39  1  0  0  0  0
 17 40  1  0  0  0  0
 18 41  1  0  0  0  0
 19 42  1  0  0  0  0
 20 43  1  0  0  0  0
 22 44  1  0  0  0  0
 24 45  1  0  0  0  0
 26 46  1  0  0  0  0
 27 47  1  0  0  0  0
 29 48  1  0  0  0  0
M  END
$$$$
