C24H14
APtclcactv01171906243D 0   0.00000     0.00000
 
 38 43  0  0  0  0  0  0  0  0999 V2000
   -2.7942   -2.3099   -0.0003 C   0  0  0  0  0  0  0  0  0  0  0  0
   -4.1792   -2.4122   -0.0000 C   0  0  0  0  0  0  0  0  0  0  0  0
   -4.9689   -1.2987    0.0002 C   0  0  0  0  0  0  0  0  0  0  0  0
   -4.3887   -0.0187    0.0006 C   0  0  0  0  0  0  0  0  0  0  0  0
   -5.1800    1.1440    0.0003 C   0  0  0  0  0  0  0  0  0  0  0  0
   -4.5821    2.3826    0.0002 C   0  0  0  0  0  0  0  0  0  0  0  0
   -3.2026    2.5153   -0.0001 C   0  0  0  0  0  0  0  0  0  0  0  0
   -2.3817    1.3847   -0.0002 C   0  0  0  0  0  0  0  0  0  0  0  0
   -0.9729    1.5252   -0.0005 C   0  0  0  0  0  0  0  0  0  0  0  0
   -0.1507    0.4409   -0.0006 C   0  0  0  0  0  0  0  0  0  0  0  0
   -0.7178   -0.9201   -0.0006 C   0  0  0  0  0  0  0  0  0  0  0  0
   -2.1862   -1.0629    0.0001 C   0  0  0  0  0  0  0  0  0  0  0  0
   -2.9801    0.1029    0.0008 C   0  0  0  0  0  0  0  0  0  0  0  0
    0.3033   -1.8369   -0.0004 C   0  0  0  0  0  0  0  0  0  0  0  0
    1.5904   -1.1453   -0.0001 C   0  0  0  0  0  0  0  0  0  0  0  0
    2.9009   -1.6073   -0.0001 C   0  0  0  0  0  0  0  0  0  0  0  0
    3.9590   -0.6904   -0.0002 C   0  0  0  0  0  0  0  0  0  0  0  0
    3.6818    0.7468   -0.0003 C   0  0  0  0  0  0  0  0  0  0  0  0
    2.3551    1.2042   -0.0004 C   0  0  0  0  0  0  0  0  0  0  0  0
    1.3189    0.2953   -0.0003 C   0  0  0  0  0  0  0  0  0  0  0  0
    4.7632    1.6457    0.0002 C   0  0  0  0  0  0  0  0  0  0  0  0
    6.0365    1.1646    0.0007 C   0  0  0  0  0  0  0  0  0  0  0  0
    6.3008   -0.2022    0.0003 C   0  0  0  0  0  0  0  0  0  0  0  0
    5.2990   -1.1227    0.0004 C   0  0  0  0  0  0  0  0  0  0  0  0
   -2.1884   -3.2040    0.0037 H   0  0  0  0  0  0  0  0  0  0  0  0
   -4.6392   -3.3893   -0.0004 H   0  0  0  0  0  0  0  0  0  0  0  0
   -6.0440   -1.4019   -0.0003 H   0  0  0  0  0  0  0  0  0  0  0  0
   -6.2571    1.0643   -0.0001 H   0  0  0  0  0  0  0  0  0  0  0  0
   -5.1994    3.2688    0.0000 H   0  0  0  0  0  0  0  0  0  0  0  0
   -2.7588    3.4999   -0.0005 H   0  0  0  0  0  0  0  0  0  0  0  0
   -0.5412    2.5152   -0.0010 H   0  0  0  0  0  0  0  0  0  0  0  0
    0.1748   -2.9092   -0.0001 H   0  0  0  0  0  0  0  0  0  0  0  0
    3.1023   -2.6683    0.0002 H   0  0  0  0  0  0  0  0  0  0  0  0
    2.1469    2.2640   -0.0006 H   0  0  0  0  0  0  0  0  0  0  0  0
    4.5847    2.7109   -0.0003 H   0  0  0  0  0  0  0  0  0  0  0  0
    6.8623    1.8606    0.0011 H   0  0  0  0  0  0  0  0  0  0  0  0
    7.3265   -0.5402    0.0004 H   0  0  0  0  0  0  0  0  0  0  0  0
    5.5299   -2.1777    0.0008 H   0  0  0  0  0  0  0  0  0  0  0  0
  1  2  2  0  0  0  0
  2  3  1  0  0  0  0
  3  4  2  0  0  0  0
  4  5  1  0  0  0  0
  5  6  2  0  0  0  0
  6  7  1  0  0  0  0
  7  8  2  0  0  0  0
  8  9  1  0  0  0  0
  9 10  2  0  0  0  0
 10 11  1  0  0  0  0
 11 12  1  0  0  0  0
  1 12  1  0  0  0  0
 12 13  2  0  0  0  0
  8 13  1  0  0  0  0
  4 13  1  0  0  0  0
 11 14  2  0  0  0  0
 14 15  1  0  0  0  0
 15 16  1  0  0  0  0
 16 17  2  0  0  0  0
 17 18  1  0  0  0  0
 18 19  2  0  0  0  0
 19 20  1  0  0  0  0
 15 20  2  0  0  0  0
 10 20  1  0  0  0  0
 18 21  1  0  0  0  0
 21 22  2  0  0  0  0
 22 23  1  0  0  0  0
 23 24  2  0  0  0  0
 17 24  1  0  0  0  0
  1 25  1  0  0  0  0
  2 26  1  0  0  0  0
  3 27  1  0  0  0  0
  5 28  1  0  0  0  0
  6 29  1  0  0  0  0
  7 30  1  0  0  0  0
  9 31  1  0  0  0  0
 14 32  1  0  0  0  0
 16 33  1  0  0  0  0
 19 34  1  0  0  0  0
 21 35  1  0  0  0  0
 22 36  1  0  0  0  0
 23 37  1  0  0  0  0
 24 38  1  0  0  0  0
M  END
$$$$
