C18H12
APtclcactv01171906243D 0   0.00000     0.00000
 
 30 33  0  0  0  0  0  0  0  0999 V2000
   -3.6533   -1.4125    0.0003 C   0  0  0  0  0  0  0  0  0  0  0  0
   -4.8074   -0.6991    0.0013 C   0  0  0  0  0  0  0  0  0  0  0  0
   -4.8078    0.6972    0.0009 C   0  0  0  0  0  0  0  0  0  0  0  0
   -3.6544    1.4117   -0.0001 C   0  0  0  0  0  0  0  0  0  0  0  0
   -2.4145    0.7345   -0.0007 C   0  0  0  0  0  0  0  0  0  0  0  0
   -2.4142   -0.7338   -0.0007 C   0  0  0  0  0  0  0  0  0  0  0  0
   -1.2136   -1.4341   -0.0008 C   0  0  0  0  0  0  0  0  0  0  0  0
   -0.0000   -0.7338   -0.0008 C   0  0  0  0  0  0  0  0  0  0  0  0
    1.2136   -1.4341   -0.0004 C   0  0  0  0  0  0  0  0  0  0  0  0
    2.4142   -0.7338    0.0001 C   0  0  0  0  0  0  0  0  0  0  0  0
    3.6533   -1.4125    0.0002 C   0  0  0  0  0  0  0  0  0  0  0  0
    4.8074   -0.6991    0.0001 C   0  0  0  0  0  0  0  0  0  0  0  0
    4.8078    0.6972    0.0004 C   0  0  0  0  0  0  0  0  0  0  0  0
    3.6544    1.4117    0.0008 C   0  0  0  0  0  0  0  0  0  0  0  0
    2.4145    0.7344   -0.0001 C   0  0  0  0  0  0  0  0  0  0  0  0
    1.2141    1.4353    0.0008 C   0  0  0  0  0  0  0  0  0  0  0  0
   -0.0000    0.7357   -0.0009 C   0  0  0  0  0  0  0  0  0  0  0  0
   -1.2141    1.4353   -0.0012 C   0  0  0  0  0  0  0  0  0  0  0  0
   -3.6817   -2.4921    0.0048 H   0  0  0  0  0  0  0  0  0  0  0  0
   -5.7506   -1.2251    0.0021 H   0  0  0  0  0  0  0  0  0  0  0  0
   -5.7515    1.2224    0.0010 H   0  0  0  0  0  0  0  0  0  0  0  0
   -3.6840    2.4913   -0.0009 H   0  0  0  0  0  0  0  0  0  0  0  0
   -1.2161   -2.5141   -0.0004 H   0  0  0  0  0  0  0  0  0  0  0  0
    1.2161   -2.5141    0.0000 H   0  0  0  0  0  0  0  0  0  0  0  0
    3.6818   -2.4921    0.0006 H   0  0  0  0  0  0  0  0  0  0  0  0
    5.7506   -1.2251    0.0002 H   0  0  0  0  0  0  0  0  0  0  0  0
    5.7515    1.2224    0.0007 H   0  0  0  0  0  0  0  0  0  0  0  0
    3.6840    2.4913    0.0017 H   0  0  0  0  0  0  0  0  0  0  0  0
    1.2172    2.5153    0.0020 H   0  0  0  0  0  0  0  0  0  0  0  0
   -1.2172    2.5153   -0.0013 H   0  0  0  0  0  0  0  0  0  0  0  0
  1  2  2  0  0  0  0
  2  3  1  0  0  0  0
  3  4  2  0  0  0  0
  4  5  1  0  0  0  0
  5  6  1  0  0  0  0
  1  6  1  0  0  0  0
  6  7  2  0  0  0  0
  7  8  1  0  0  0  0
  8  9  2  0  0  0  0
  9 10  1  0  0  0  0
 10 11  2  0  0  0  0
 11 12  1  0  0  0  0
 12 13  2  0  0  0  0
 13 14  1  0  0  0  0
 14 15  2  0  0  0  0
 10 15  1  0  0  0  0
 15 16  1  0  0  0  0
 16 17  2  0  0  0  0
  8 17  1  0  0  0  0
 17 18  1  0  0  0  0
  5 18  2  0  0  0  0
  1 19  1  0  0  0  0
  2 20  1  0  0  0  0
  3 21  1  0  0  0  0
  4 22  1  0  0  0  0
  7 23  1  0  0  0  0
  9 24  1  0  0  0  0
 11 25  1  0  0  0  0
 12 26  1  0  0  0  0
 13 27  1  0  0  0  0
 14 28  1  0  0  0  0
 16 29  1  0  0  0  0
 18 30  1  0  0  0  0
M  END
$$$$
