C34H16
APtclcactv01171906233D 0   0.00000     0.00000
 
 50 59  0  0  0  0  0  0  0  0999 V2000
   -3.7896   -3.0013    0.0009 C   0  0  0  0  0  0  0  0  0  0  0  0
   -4.8829   -2.2090    0.0041 C   0  0  0  0  0  0  0  0  0  0  0  0
   -4.7458   -0.7549    0.0039 C   0  0  0  0  0  0  0  0  0  0  0  0
   -5.8753    0.0674    0.0072 C   0  0  0  0  0  0  0  0  0  0  0  0
   -5.7365    1.4408    0.0069 C   0  0  0  0  0  0  0  0  0  0  0  0
   -4.4868    2.0288    0.0033 C   0  0  0  0  0  0  0  0  0  0  0  0
   -3.3368    1.2402    0.0004 C   0  0  0  0  0  0  0  0  0  0  0  0
   -3.4584   -0.1682    0.0007 C   0  0  0  0  0  0  0  0  0  0  0  0
   -2.3155   -0.9973   -0.0017 C   0  0  0  0  0  0  0  0  0  0  0  0
   -2.4518   -2.4102   -0.0023 C   0  0  0  0  0  0  0  0  0  0  0  0
   -1.3214   -3.2244   -0.0037 C   0  0  0  0  0  0  0  0  0  0  0  0
   -0.0390   -2.6643   -0.0040 C   0  0  0  0  0  0  0  0  0  0  0  0
    1.1183   -3.4734   -0.0039 C   0  0  0  0  0  0  0  0  0  0  0  0
    2.3569   -2.9173   -0.0026 C   0  0  0  0  0  0  0  0  0  0  0  0
    2.5300   -1.5221   -0.0015 C   0  0  0  0  0  0  0  0  0  0  0  0
    3.8692   -0.9207    0.0009 C   0  0  0  0  0  0  0  0  0  0  0  0
    4.0185    0.4833    0.0024 C   0  0  0  0  0  0  0  0  0  0  0  0
    2.8346    1.3512    0.0006 C   0  0  0  0  0  0  0  0  0  0  0  0
    2.9549    2.7504    0.0014 C   0  0  0  0  0  0  0  0  0  0  0  0
    1.8568    3.5527   -0.0007 C   0  0  0  0  0  0  0  0  0  0  0  0
    0.5615    3.0004   -0.0033 C   0  0  0  0  0  0  0  0  0  0  0  0
   -0.5913    3.8079   -0.0046 C   0  0  0  0  0  0  0  0  0  0  0  0
   -1.8340    3.2518   -0.0066 C   0  0  0  0  0  0  0  0  0  0  0  0
   -2.0045    1.8600   -0.0039 C   0  0  0  0  0  0  0  0  0  0  0  0
   -0.8732    1.0256    0.0008 C   0  0  0  0  0  0  0  0  0  0  0  0
    0.4157    1.5956   -0.0042 C   0  0  0  0  0  0  0  0  0  0  0  0
    1.5568    0.7666   -0.0025 C   0  0  0  0  0  0  0  0  0  0  0  0
    1.4009   -0.6855   -0.0022 C   0  0  0  0  0  0  0  0  0  0  0  0
    0.1083   -1.2552   -0.0034 C   0  0  0  0  0  0  0  0  0  0  0  0
   -1.0298   -0.4265   -0.0047 C   0  0  0  0  0  0  0  0  0  0  0  0
    5.3026    1.0386    0.0052 C   0  0  0  0  0  0  0  0  0  0  0  0
    6.3967    0.2224    0.0064 C   0  0  0  0  0  0  0  0  0  0  0  0
    6.2504   -1.1593    0.0050 C   0  0  0  0  0  0  0  0  0  0  0  0
    5.0106   -1.7303    0.0023 C   0  0  0  0  0  0  0  0  0  0  0  0
   -3.9034   -4.0753    0.0052 H   0  0  0  0  0  0  0  0  0  0  0  0
   -5.8668   -2.6542    0.0065 H   0  0  0  0  0  0  0  0  0  0  0  0
   -6.8612   -0.3734    0.0097 H   0  0  0  0  0  0  0  0  0  0  0  0
   -6.6181    2.0646    0.0092 H   0  0  0  0  0  0  0  0  0  0  0  0
   -4.3998    3.1053    0.0024 H   0  0  0  0  0  0  0  0  0  0  0  0
   -1.4358   -4.2983   -0.0042 H   0  0  0  0  0  0  0  0  0  0  0  0
    1.0168   -4.5486   -0.0044 H   0  0  0  0  0  0  0  0  0  0  0  0
    3.2257   -3.5589   -0.0022 H   0  0  0  0  0  0  0  0  0  0  0  0
    3.9380    3.1976    0.0042 H   0  0  0  0  0  0  0  0  0  0  0  0
    1.9797    4.6257   -0.0000 H   0  0  0  0  0  0  0  0  0  0  0  0
   -0.4888    4.8830   -0.0037 H   0  0  0  0  0  0  0  0  0  0  0  0
   -2.7029    3.8933   -0.0072 H   0  0  0  0  0  0  0  0  0  0  0  0
    5.4280    2.1113    0.0060 H   0  0  0  0  0  0  0  0  0  0  0  0
    7.3862    0.6551    0.0082 H   0  0  0  0  0  0  0  0  0  0  0  0
    7.1280   -1.7889    0.0056 H   0  0  0  0  0  0  0  0  0  0  0  0
    4.9107   -2.8057    0.0011 H   0  0  0  0  0  0  0  0  0  0  0  0
  1  2  2  0  0  0  0
  2  3  1  0  0  0  0
  3  4  2  0  0  0  0
  4  5  1  0  0  0  0
  5  6  2  0  0  0  0
  6  7  1  0  0  0  0
  7  8  2  0  0  0  0
  3  8  1  0  0  0  0
  8  9  1  0  0  0  0
  9 10  1  0  0  0  0
  1 10  1  0  0  0  0
 10 11  2  0  0  0  0
 11 12  1  0  0  0  0
 12 13  1  0  0  0  0
 13 14  2  0  0  0  0
 14 15  1  0  0  0  0
 15 16  2  0  0  0  0
 16 17  1  0  0  0  0
 17 18  2  0  0  0  0
 18 19  1  0  0  0  0
 19 20  2  0  0  0  0
 20 21  1  0  0  0  0
 21 22  1  0  0  0  0
 22 23  2  0  0  0  0
 23 24  1  0  0  0  0
  7 24  1  0  0  0  0
 24 25  2  0  0  0  0
 25 26  1  0  0  0  0
 21 26  2  0  0  0  0
 26 27  1  0  0  0  0
 18 27  1  0  0  0  0
 27 28  2  0  0  0  0
 15 28  1  0  0  0  0
 28 29  1  0  0  0  0
 12 29  2  0  0  0  0
 29 30  1  0  0  0  0
  9 30  2  0  0  0  0
 25 30  1  0  0  0  0
 17 31  1  0  0  0  0
 31 32  2  0  0  0  0
 32 33  1  0  0  0  0
 33 34  2  0  0  0  0
 16 34  1  0  0  0  0
  1 35  1  0  0  0  0
  2 36  1  0  0  0  0
  4 37  1  0  0  0  0
  5 38  1  0  0  0  0
  6 39  1  0  0  0  0
 11 40  1  0  0  0  0
 13 41  1  0  0  0  0
 14 42  1  0  0  0  0
 19 43  1  0  0  0  0
 20 44  1  0  0  0  0
 22 45  1  0  0  0  0
 23 46  1  0  0  0  0
 31 47  1  0  0  0  0
 32 48  1  0  0  0  0
 33 49  1  0  0  0  0
 34 50  1  0  0  0  0
M  END
$$$$
