C30H18
APtclcactv01171906223D 0   0.00000     0.00000
 
 48 54  0  0  0  0  0  0  0  0999 V2000
    3.1834    3.7760    0.2146 C   0  0  0  0  0  0  0  0  0  0  0  0
    2.3504    2.6509    0.2822 C   0  0  0  0  0  0  0  0  0  0  0  0
    0.9938    2.7763    0.6420 C   0  0  0  0  0  0  0  0  0  0  0  0
    0.1828    1.6948    0.6685 C   0  0  0  0  0  0  0  0  0  0  0  0
    0.6434    0.4086    0.3407 C   0  0  0  0  0  0  0  0  0  0  0  0
   -0.2884   -0.7000    0.1294 C   0  0  0  0  0  0  0  0  0  0  0  0
   -1.7328   -0.4954   -0.0069 C   0  0  0  0  0  0  0  0  0  0  0  0
   -2.3022    0.7540   -0.1961 C   0  0  0  0  0  0  0  0  0  0  0  0
   -3.6909    0.9021   -0.1878 C   0  0  0  0  0  0  0  0  0  0  0  0
   -4.5548   -0.2696   -0.0202 C   0  0  0  0  0  0  0  0  0  0  0  0
   -3.9877   -1.5400    0.0583 C   0  0  0  0  0  0  0  0  0  0  0  0
   -2.6037   -1.6790    0.0222 C   0  0  0  0  0  0  0  0  0  0  0  0
   -2.0167   -2.9637   -0.0407 C   0  0  0  0  0  0  0  0  0  0  0  0
   -0.6763   -3.1073   -0.0622 C   0  0  0  0  0  0  0  0  0  0  0  0
    0.2037   -2.0117    0.0308 C   0  0  0  0  0  0  0  0  0  0  0  0
    1.6537   -2.2505    0.0091 C   0  0  0  0  0  0  0  0  0  0  0  0
    2.1533   -3.5490   -0.1326 C   0  0  0  0  0  0  0  0  0  0  0  0
    3.5011   -3.7698   -0.1040 C   0  0  0  0  0  0  0  0  0  0  0  0
    4.3824   -2.7136    0.0739 C   0  0  0  0  0  0  0  0  0  0  0  0
    3.9215   -1.4340    0.1978 C   0  0  0  0  0  0  0  0  0  0  0  0
    2.5518   -1.1648    0.1282 C   0  0  0  0  0  0  0  0  0  0  0  0
    2.0274    0.1973    0.1748 C   0  0  0  0  0  0  0  0  0  0  0  0
    2.8752    1.3702   -0.0259 C   0  0  0  0  0  0  0  0  0  0  0  0
    4.1588    1.2901   -0.5723 C   0  0  0  0  0  0  0  0  0  0  0  0
    4.9333    2.4102   -0.6726 C   0  0  0  0  0  0  0  0  0  0  0  0
    4.4537    3.6495   -0.2612 C   0  0  0  0  0  0  0  0  0  0  0  0
   -5.9498   -0.0820    0.0576 C   0  0  0  0  0  0  0  0  0  0  0  0
   -6.4642    1.1690   -0.0645 C   0  0  0  0  0  0  0  0  0  0  0  0
   -5.6453    2.2801   -0.2655 C   0  0  0  0  0  0  0  0  0  0  0  0
   -4.2929    2.1689   -0.3321 C   0  0  0  0  0  0  0  0  0  0  0  0
    2.8198    4.7396    0.5433 H   0  0  0  0  0  0  0  0  0  0  0  0
    0.5959    3.7478    0.8953 H   0  0  0  0  0  0  0  0  0  0  0  0
   -0.8309    1.8319    1.0165 H   0  0  0  0  0  0  0  0  0  0  0  0
   -1.6893    1.6175   -0.4108 H   0  0  0  0  0  0  0  0  0  0  0  0
   -4.6178   -2.4131    0.1496 H   0  0  0  0  0  0  0  0  0  0  0  0
   -2.6488   -3.8378   -0.0722 H   0  0  0  0  0  0  0  0  0  0  0  0
   -0.2715   -4.1031   -0.1547 H   0  0  0  0  0  0  0  0  0  0  0  0
    1.4802   -4.3817   -0.2647 H   0  0  0  0  0  0  0  0  0  0  0  0
    3.8801   -4.7744   -0.2212 H   0  0  0  0  0  0  0  0  0  0  0  0
    5.4441   -2.9049    0.1166 H   0  0  0  0  0  0  0  0  0  0  0  0
    4.6289   -0.6444    0.4055 H   0  0  0  0  0  0  0  0  0  0  0  0
    4.5384    0.3571   -0.9622 H   0  0  0  0  0  0  0  0  0  0  0  0
    5.9316    2.3330   -1.0781 H   0  0  0  0  0  0  0  0  0  0  0  0
    5.0908    4.5189   -0.3241 H   0  0  0  0  0  0  0  0  0  0  0  0
   -6.6053   -0.9268    0.2128 H   0  0  0  0  0  0  0  0  0  0  0  0
   -7.5337    1.3071   -0.0027 H   0  0  0  0  0  0  0  0  0  0  0  0
   -6.0986    3.2552   -0.3701 H   0  0  0  0  0  0  0  0  0  0  0  0
   -3.6835    3.0452   -0.4985 H   0  0  0  0  0  0  0  0  0  0  0  0
  1  2  2  0  0  0  0
  2  3  1  0  0  0  0
  3  4  2  0  0  0  0
  4  5  1  0  0  0  0
  5  6  1  0  0  0  0
  6  7  2  0  0  0  0
  7  8  1  0  0  0  0
  8  9  2  0  0  0  0
  9 10  1  0  0  0  0
 10 11  2  0  0  0  0
 11 12  1  0  0  0  0
  7 12  1  0  0  0  0
 12 13  2  0  0  0  0
 13 14  1  0  0  0  0
 14 15  2  0  0  0  0
  6 15  1  0  0  0  0
 15 16  1  0  0  0  0
 16 17  2  0  0  0  0
 17 18  1  0  0  0  0
 18 19  2  0  0  0  0
 19 20  1  0  0  0  0
 20 21  2  0  0  0  0
 16 21  1  0  0  0  0
 21 22  1  0  0  0  0
  5 22  2  0  0  0  0
 22 23  1  0  0  0  0
  2 23  1  0  0  0  0
 23 24  2  0  0  0  0
 24 25  1  0  0  0  0
 25 26  2  0  0  0  0
  1 26  1  0  0  0  0
 10 27  1  0  0  0  0
 27 28  2  0  0  0  0
 28 29  1  0  0  0  0
 29 30  2  0  0  0  0
  9 30  1  0  0  0  0
  1 31  1  0  0  0  0
  3 32  1  0  0  0  0
  4 33  1  0  0  0  0
  8 34  1  0  0  0  0
 11 35  1  0  0  0  0
 13 36  1  0  0  0  0
 14 37  1  0  0  0  0
 17 38  1  0  0  0  0
 18 39  1  0  0  0  0
 19 40  1  0  0  0  0
 20 41  1  0  0  0  0
 24 42  1  0  0  0  0
 25 43  1  0  0  0  0
 26 44  1  0  0  0  0
 27 45  1  0  0  0  0
 28 46  1  0  0  0  0
 29 47  1  0  0  0  0
 30 48  1  0  0  0  0
M  END
$$$$
