C26H16
APtclcactv01171906223D 0   0.00000     0.00000
 
 42 47  0  0  0  0  0  0  0  0999 V2000
   -3.9951   -1.9376    0.1061 C   0  0  0  0  0  0  0  0  0  0  0  0
   -5.3389   -2.1655    0.0268 C   0  0  0  0  0  0  0  0  0  0  0  0
   -6.2348   -1.1080   -0.0885 C   0  0  0  0  0  0  0  0  0  0  0  0
   -5.7937    0.1808   -0.1352 C   0  0  0  0  0  0  0  0  0  0  0  0
   -4.4177    0.4481   -0.0741 C   0  0  0  0  0  0  0  0  0  0  0  0
   -3.9308    1.7710   -0.1513 C   0  0  0  0  0  0  0  0  0  0  0  0
   -2.6046    2.0328   -0.1170 C   0  0  0  0  0  0  0  0  0  0  0  0
   -1.6548    1.0035    0.0135 C   0  0  0  0  0  0  0  0  0  0  0  0
   -0.2197    1.2854    0.0012 C   0  0  0  0  0  0  0  0  0  0  0  0
    0.2591    2.5997   -0.1177 C   0  0  0  0  0  0  0  0  0  0  0  0
    1.5860    2.8657   -0.1041 C   0  0  0  0  0  0  0  0  0  0  0  0
    2.5370    1.8319   -0.0005 C   0  0  0  0  0  0  0  0  0  0  0  0
    3.9095    2.1387    0.1297 C   0  0  0  0  0  0  0  0  0  0  0  0
    4.8447    1.1681    0.1807 C   0  0  0  0  0  0  0  0  0  0  0  0
    4.4906   -0.1934    0.0612 C   0  0  0  0  0  0  0  0  0  0  0  0
    3.1314   -0.5573   -0.1129 C   0  0  0  0  0  0  0  0  0  0  0  0
    2.1152    0.4844   -0.0125 C   0  0  0  0  0  0  0  0  0  0  0  0
    0.6903    0.2083    0.1244 C   0  0  0  0  0  0  0  0  0  0  0  0
    0.1954   -1.0724    0.4160 C   0  0  0  0  0  0  0  0  0  0  0  0
   -1.1344   -1.3411    0.4016 C   0  0  0  0  0  0  0  0  0  0  0  0
   -2.0792   -0.3322    0.1645 C   0  0  0  0  0  0  0  0  0  0  0  0
   -3.5102   -0.6279    0.0653 C   0  0  0  0  0  0  0  0  0  0  0  0
    2.8248   -1.8927   -0.3884 C   0  0  0  0  0  0  0  0  0  0  0  0
    3.8092   -2.8386   -0.3793 C   0  0  0  0  0  0  0  0  0  0  0  0
    5.1290   -2.4925   -0.1112 C   0  0  0  0  0  0  0  0  0  0  0  0
    5.4730   -1.1932    0.1128 C   0  0  0  0  0  0  0  0  0  0  0  0
   -3.3128   -2.7697    0.1954 H   0  0  0  0  0  0  0  0  0  0  0  0
   -5.7099   -3.1795    0.0520 H   0  0  0  0  0  0  0  0  0  0  0  0
   -7.2942   -1.3109   -0.1403 H   0  0  0  0  0  0  0  0  0  0  0  0
   -6.5009    0.9932   -0.2166 H   0  0  0  0  0  0  0  0  0  0  0  0
   -4.6305    2.5895   -0.2361 H   0  0  0  0  0  0  0  0  0  0  0  0
   -2.2732    3.0577   -0.1895 H   0  0  0  0  0  0  0  0  0  0  0  0
   -0.4392    3.4161   -0.2211 H   0  0  0  0  0  0  0  0  0  0  0  0
    1.9219    3.8898   -0.1748 H   0  0  0  0  0  0  0  0  0  0  0  0
    4.2162    3.1727    0.1864 H   0  0  0  0  0  0  0  0  0  0  0  0
    5.8821    1.4361    0.3140 H   0  0  0  0  0  0  0  0  0  0  0  0
    0.8731   -1.8600    0.7079 H   0  0  0  0  0  0  0  0  0  0  0  0
   -1.4668   -2.3533    0.5766 H   0  0  0  0  0  0  0  0  0  0  0  0
    1.8207   -2.1854   -0.6563 H   0  0  0  0  0  0  0  0  0  0  0  0
    3.5584   -3.8697   -0.5805 H   0  0  0  0  0  0  0  0  0  0  0  0
    5.8878   -3.2598   -0.0793 H   0  0  0  0  0  0  0  0  0  0  0  0
    6.4986   -0.9332    0.3307 H   0  0  0  0  0  0  0  0  0  0  0  0
  1  2  2  0  0  0  0
  2  3  1  0  0  0  0
  3  4  2  0  0  0  0
  4  5  1  0  0  0  0
  5  6  1  0  0  0  0
  6  7  2  0  0  0  0
  7  8  1  0  0  0  0
  8  9  1  0  0  0  0
  9 10  1  0  0  0  0
 10 11  2  0  0  0  0
 11 12  1  0  0  0  0
 12 13  1  0  0  0  0
 13 14  2  0  0  0  0
 14 15  1  0  0  0  0
 15 16  2  0  0  0  0
 16 17  1  0  0  0  0
 12 17  2  0  0  0  0
 17 18  1  0  0  0  0
  9 18  2  0  0  0  0
 18 19  1  0  0  0  0
 19 20  2  0  0  0  0
 20 21  1  0  0  0  0
  8 21  2  0  0  0  0
 21 22  1  0  0  0  0
  1 22  1  0  0  0  0
  5 22  2  0  0  0  0
 16 23  1  0  0  0  0
 23 24  2  0  0  0  0
 24 25  1  0  0  0  0
 25 26  2  0  0  0  0
 15 26  1  0  0  0  0
  1 27  1  0  0  0  0
  2 28  1  0  0  0  0
  3 29  1  0  0  0  0
  4 30  1  0  0  0  0
  6 31  1  0  0  0  0
  7 32  1  0  0  0  0
 10 33  1  0  0  0  0
 11 34  1  0  0  0  0
 13 35  1  0  0  0  0
 14 36  1  0  0  0  0
 19 37  1  0  0  0  0
 20 38  1  0  0  0  0
 23 39  1  0  0  0  0
 24 40  1  0  0  0  0
 25 41  1  0  0  0  0
 26 42  1  0  0  0  0
M  END
$$$$
