C36H16
APtclcactv01171906243D 0   0.00000     0.00000
 
 52 62  0  0  0  0  0  0  0  0999 V2000
   -4.3563    2.8235    0.0021 C   0  0  0  0  0  0  0  0  0  0  0  0
   -5.1673    1.7347   -0.0001 C   0  0  0  0  0  0  0  0  0  0  0  0
   -4.6317    0.4318   -0.0016 C   0  0  0  0  0  0  0  0  0  0  0  0
   -5.4592   -0.7099   -0.0034 C   0  0  0  0  0  0  0  0  0  0  0  0
   -4.9321   -1.9603   -0.0037 C   0  0  0  0  0  0  0  0  0  0  0  0
   -3.5356   -2.1590   -0.0023 C   0  0  0  0  0  0  0  0  0  0  0  0
   -2.9677   -3.4458   -0.0014 C   0  0  0  0  0  0  0  0  0  0  0  0
   -1.6159   -3.6138   -0.0000 C   0  0  0  0  0  0  0  0  0  0  0  0
   -0.7505   -2.5112    0.0005 C   0  0  0  0  0  0  0  0  0  0  0  0
    0.7093   -2.6683    0.0010 C   0  0  0  0  0  0  0  0  0  0  0  0
    1.5406   -1.5260    0.0012 C   0  0  0  0  0  0  0  0  0  0  0  0
    0.9900   -0.2181    0.0013 C   0  0  0  0  0  0  0  0  0  0  0  0
    1.8348    0.9204    0.0010 C   0  0  0  0  0  0  0  0  0  0  0  0
    1.2911    2.2215    0.0005 C   0  0  0  0  0  0  0  0  0  0  0  0
   -0.1627    2.3930    0.0004 C   0  0  0  0  0  0  0  0  0  0  0  0
   -0.7539    3.6673   -0.0004 C   0  0  0  0  0  0  0  0  0  0  0  0
   -2.1049    3.8128   -0.0013 C   0  0  0  0  0  0  0  0  0  0  0  0
   -2.9536    2.6882    0.0029 C   0  0  0  0  0  0  0  0  0  0  0  0
   -2.3854    1.3958    0.0087 C   0  0  0  0  0  0  0  0  0  0  0  0
   -3.2304    0.2662   -0.0008 C   0  0  0  0  0  0  0  0  0  0  0  0
   -2.6837   -1.0336   -0.0013 C   0  0  0  0  0  0  0  0  0  0  0  0
   -1.2856   -1.2115    0.0001 C   0  0  0  0  0  0  0  0  0  0  0  0
   -0.4044   -0.0463    0.0011 C   0  0  0  0  0  0  0  0  0  0  0  0
   -0.9811    1.2455    0.0007 C   0  0  0  0  0  0  0  0  0  0  0  0
    2.1440    3.3418   -0.0004 C   0  0  0  0  0  0  0  0  0  0  0  0
    3.4907    3.1965   -0.0015 C   0  0  0  0  0  0  0  0  0  0  0  0
    4.0723    1.9091   -0.0013 C   0  0  0  0  0  0  0  0  0  0  0  0
    3.2400    0.7670    0.0007 C   0  0  0  0  0  0  0  0  0  0  0  0
    3.8198   -0.5186    0.0007 C   0  0  0  0  0  0  0  0  0  0  0  0
    2.9427   -1.7024    0.0010 C   0  0  0  0  0  0  0  0  0  0  0  0
    3.4811   -2.9834    0.0017 C   0  0  0  0  0  0  0  0  0  0  0  0
    2.6516   -4.0911    0.0023 C   0  0  0  0  0  0  0  0  0  0  0  0
    1.2813   -3.9423    0.0008 C   0  0  0  0  0  0  0  0  0  0  0  0
    5.2028   -0.6481   -0.0014 C   0  0  0  0  0  0  0  0  0  0  0  0
    6.0098    0.4788   -0.0030 C   0  0  0  0  0  0  0  0  0  0  0  0
    5.4638    1.7430   -0.0029 C   0  0  0  0  0  0  0  0  0  0  0  0
   -4.7939    3.8109   -0.0012 H   0  0  0  0  0  0  0  0  0  0  0  0
   -6.2389    1.8695   -0.0004 H   0  0  0  0  0  0  0  0  0  0  0  0
   -6.5322   -0.5870   -0.0041 H   0  0  0  0  0  0  0  0  0  0  0  0
   -5.5913   -2.8157   -0.0046 H   0  0  0  0  0  0  0  0  0  0  0  0
   -3.6122   -4.3125   -0.0015 H   0  0  0  0  0  0  0  0  0  0  0  0
   -1.2044   -4.6123    0.0010 H   0  0  0  0  0  0  0  0  0  0  0  0
   -0.1247    4.5451    0.0001 H   0  0  0  0  0  0  0  0  0  0  0  0
   -2.5339    4.8040   -0.0019 H   0  0  0  0  0  0  0  0  0  0  0  0
    1.7172    4.3339   -0.0006 H   0  0  0  0  0  0  0  0  0  0  0  0
    4.1243    4.0711   -0.0029 H   0  0  0  0  0  0  0  0  0  0  0  0
    4.5530   -3.1152    0.0013 H   0  0  0  0  0  0  0  0  0  0  0  0
    3.0820   -5.0817    0.0025 H   0  0  0  0  0  0  0  0  0  0  0  0
    0.6463   -4.8159    0.0013 H   0  0  0  0  0  0  0  0  0  0  0  0
    5.6510   -1.6307   -0.0014 H   0  0  0  0  0  0  0  0  0  0  0  0
    7.0836    0.3636   -0.0040 H   0  0  0  0  0  0  0  0  0  0  0  0
    6.1096    2.6087   -0.0047 H   0  0  0  0  0  0  0  0  0  0  0  0
  1  2  2  0  0  0  0
  2  3  1  0  0  0  0
  3  4  1  0  0  0  0
  4  5  2  0  0  0  0
  5  6  1  0  0  0  0
  6  7  1  0  0  0  0
  7  8  2  0  0  0  0
  8  9  1  0  0  0  0
  9 10  2  0  0  0  0
 10 11  1  0  0  0  0
 11 12  2  0  0  0  0
 12 13  1  0  0  0  0
 13 14  2  0  0  0  0
 14 15  1  0  0  0  0
 15 16  1  0  0  0  0
 16 17  2  0  0  0  0
 17 18  1  0  0  0  0
  1 18  1  0  0  0  0
 18 19  2  0  0  0  0
 19 20  1  0  0  0  0
  3 20  2  0  0  0  0
 20 21  1  0  0  0  0
  6 21  2  0  0  0  0
 21 22  1  0  0  0  0
  9 22  1  0  0  0  0
 22 23  2  0  0  0  0
 12 23  1  0  0  0  0
 23 24  1  0  0  0  0
 19 24  1  0  0  0  0
 15 24  2  0  0  0  0
 14 25  1  0  0  0  0
 25 26  2  0  0  0  0
 26 27  1  0  0  0  0
 27 28  1  0  0  0  0
 13 28  1  0  0  0  0
 28 29  2  0  0  0  0
 29 30  1  0  0  0  0
 11 30  1  0  0  0  0
 30 31  2  0  0  0  0
 31 32  1  0  0  0  0
 32 33  2  0  0  0  0
 10 33  1  0  0  0  0
 29 34  1  0  0  0  0
 34 35  2  0  0  0  0
 35 36  1  0  0  0  0
 27 36  2  0  0  0  0
  1 37  1  0  0  0  0
  2 38  1  0  0  0  0
  4 39  1  0  0  0  0
  5 40  1  0  0  0  0
  7 41  1  0  0  0  0
  8 42  1  0  0  0  0
 16 43  1  0  0  0  0
 17 44  1  0  0  0  0
 25 45  1  0  0  0  0
 26 46  1  0  0  0  0
 31 47  1  0  0  0  0
 32 48  1  0  0  0  0
 33 49  1  0  0  0  0
 34 50  1  0  0  0  0
 35 51  1  0  0  0  0
 36 52  1  0  0  0  0
M  END
$$$$
