C24H14
APtclcactv01171906213D 0   0.00000     0.00000
 
 38 43  0  0  0  0  0  0  0  0999 V2000
   -2.1213   -2.4016    0.0180 C   0  0  0  0  0  0  0  0  0  0  0  0
   -3.4718   -2.5979    0.0136 C   0  0  0  0  0  0  0  0  0  0  0  0
   -4.1373   -1.2989    0.0020 C   0  0  0  0  0  0  0  0  0  0  0  0
   -5.4228   -0.7743   -0.0078 C   0  0  0  0  0  0  0  0  0  0  0  0
   -5.6162    0.6041   -0.0170 C   0  0  0  0  0  0  0  0  0  0  0  0
   -4.6120    1.5314   -0.0166 C   0  0  0  0  0  0  0  0  0  0  0  0
   -3.2707    1.0971   -0.0069 C   0  0  0  0  0  0  0  0  0  0  0  0
   -2.1447    1.9188   -0.0044 C   0  0  0  0  0  0  0  0  0  0  0  0
   -0.8665    1.3248    0.0034 C   0  0  0  0  0  0  0  0  0  0  0  0
    0.2667    2.1571    0.0071 C   0  0  0  0  0  0  0  0  0  0  0  0
    1.5374    1.6014    0.0075 C   0  0  0  0  0  0  0  0  0  0  0  0
    2.7254    2.4547    0.0108 C   0  0  0  0  0  0  0  0  0  0  0  0
    3.9594    1.9175    0.0079 C   0  0  0  0  0  0  0  0  0  0  0  0
    4.1672    0.4728    0.0005 C   0  0  0  0  0  0  0  0  0  0  0  0
    3.0647   -0.4076   -0.0008 C   0  0  0  0  0  0  0  0  0  0  0  0
    1.7036    0.1461    0.0051 C   0  0  0  0  0  0  0  0  0  0  0  0
    0.5948   -0.6839    0.0074 C   0  0  0  0  0  0  0  0  0  0  0  0
   -0.6875   -0.1348    0.0073 C   0  0  0  0  0  0  0  0  0  0  0  0
   -1.8290   -0.9750    0.0096 C   0  0  0  0  0  0  0  0  0  0  0  0
   -3.0581   -0.3308    0.0012 C   0  0  0  0  0  0  0  0  0  0  0  0
    3.2788   -1.7872   -0.0086 C   0  0  0  0  0  0  0  0  0  0  0  0
    4.5654   -2.2769   -0.0154 C   0  0  0  0  0  0  0  0  0  0  0  0
    5.6499   -1.4093   -0.0144 C   0  0  0  0  0  0  0  0  0  0  0  0
    5.4649   -0.0572   -0.0065 C   0  0  0  0  0  0  0  0  0  0  0  0
   -1.3801   -3.1870    0.0305 H   0  0  0  0  0  0  0  0  0  0  0  0
   -3.9672   -3.5575    0.0177 H   0  0  0  0  0  0  0  0  0  0  0  0
   -6.2751   -1.4377   -0.0087 H   0  0  0  0  0  0  0  0  0  0  0  0
   -6.6333    0.9672   -0.0254 H   0  0  0  0  0  0  0  0  0  0  0  0
   -4.8437    2.5863   -0.0240 H   0  0  0  0  0  0  0  0  0  0  0  0
   -2.2500    2.9936   -0.0088 H   0  0  0  0  0  0  0  0  0  0  0  0
    0.1474    3.2305    0.0092 H   0  0  0  0  0  0  0  0  0  0  0  0
    2.6109    3.5286    0.0152 H   0  0  0  0  0  0  0  0  0  0  0  0
    4.8182    2.5724    0.0108 H   0  0  0  0  0  0  0  0  0  0  0  0
    0.7230   -1.7563    0.0082 H   0  0  0  0  0  0  0  0  0  0  0  0
    2.4394   -2.4668   -0.0090 H   0  0  0  0  0  0  0  0  0  0  0  0
    4.7327   -3.3438   -0.0213 H   0  0  0  0  0  0  0  0  0  0  0  0
    6.6529   -1.8099   -0.0196 H   0  0  0  0  0  0  0  0  0  0  0  0
    6.3184    0.6046   -0.0054 H   0  0  0  0  0  0  0  0  0  0  0  0
  1  2  2  0  0  0  0
  2  3  1  0  0  0  0
  3  4  1  0  0  0  0
  4  5  2  0  0  0  0
  5  6  1  0  0  0  0
  6  7  2  0  0  0  0
  7  8  1  0  0  0  0
  8  9  2  0  0  0  0
  9 10  1  0  0  0  0
 10 11  2  0  0  0  0
 11 12  1  0  0  0  0
 12 13  2  0  0  0  0
 13 14  1  0  0  0  0
 14 15  2  0  0  0  0
 15 16  1  0  0  0  0
 11 16  1  0  0  0  0
 16 17  2  0  0  0  0
 17 18  1  0  0  0  0
  9 18  1  0  0  0  0
 18 19  2  0  0  0  0
  1 19  1  0  0  0  0
 19 20  1  0  0  0  0
  3 20  2  0  0  0  0
  7 20  1  0  0  0  0
 15 21  1  0  0  0  0
 21 22  2  0  0  0  0
 22 23  1  0  0  0  0
 23 24  2  0  0  0  0
 14 24  1  0  0  0  0
  1 25  1  0  0  0  0
  2 26  1  0  0  0  0
  4 27  1  0  0  0  0
  5 28  1  0  0  0  0
  6 29  1  0  0  0  0
  8 30  1  0  0  0  0
 10 31  1  0  0  0  0
 12 32  1  0  0  0  0
 13 33  1  0  0  0  0
 17 34  1  0  0  0  0
 21 35  1  0  0  0  0
 22 36  1  0  0  0  0
 23 37  1  0  0  0  0
 24 38  1  0  0  0  0
M  END
$$$$
