C30H16
APtclcactv01171906223D 0   0.00000     0.00000
 
 46 53  0  0  0  0  0  0  0  0999 V2000
    1.8849   -2.5993   -0.5293 C   0  0  0  0  0  0  0  0  0  0  0  0
    2.7350   -3.6597   -0.4549 C   0  0  0  0  0  0  0  0  0  0  0  0
    4.0669   -3.5055   -0.0766 C   0  0  0  0  0  0  0  0  0  0  0  0
    4.5860   -2.2783    0.1886 C   0  0  0  0  0  0  0  0  0  0  0  0
    3.7596   -1.1399    0.0938 C   0  0  0  0  0  0  0  0  0  0  0  0
    2.3253   -1.3200   -0.1551 C   0  0  0  0  0  0  0  0  0  0  0  0
    1.4503   -0.2240   -0.0195 C   0  0  0  0  0  0  0  0  0  0  0  0
   -0.0074   -0.3855    0.0679 C   0  0  0  0  0  0  0  0  0  0  0  0
   -0.6137   -1.6129    0.2447 C   0  0  0  0  0  0  0  0  0  0  0  0
   -2.0184   -1.7436    0.1930 C   0  0  0  0  0  0  0  0  0  0  0  0
   -2.8376   -0.5978    0.0684 C   0  0  0  0  0  0  0  0  0  0  0  0
   -2.2554    0.6798   -0.0121 C   0  0  0  0  0  0  0  0  0  0  0  0
   -3.0771    1.8268   -0.1062 C   0  0  0  0  0  0  0  0  0  0  0  0
   -2.4756    3.0901   -0.1643 C   0  0  0  0  0  0  0  0  0  0  0  0
   -1.1155    3.2161   -0.1330 C   0  0  0  0  0  0  0  0  0  0  0  0
   -0.2844    2.0952   -0.0504 C   0  0  0  0  0  0  0  0  0  0  0  0
    1.1815    2.2281   -0.0009 C   0  0  0  0  0  0  0  0  0  0  0  0
    1.7716    3.4831    0.0073 C   0  0  0  0  0  0  0  0  0  0  0  0
    3.1500    3.6332    0.0728 C   0  0  0  0  0  0  0  0  0  0  0  0
    3.9819    2.5583    0.1336 C   0  0  0  0  0  0  0  0  0  0  0  0
    3.4515    1.2522    0.1134 C   0  0  0  0  0  0  0  0  0  0  0  0
    4.2963    0.1441    0.1895 C   0  0  0  0  0  0  0  0  0  0  0  0
    2.0000    1.0720    0.0349 C   0  0  0  0  0  0  0  0  0  0  0  0
   -0.8540    0.8126   -0.0000 C   0  0  0  0  0  0  0  0  0  0  0  0
   -4.4822    1.6703   -0.1387 C   0  0  0  0  0  0  0  0  0  0  0  0
   -5.0440    0.4406   -0.0792 C   0  0  0  0  0  0  0  0  0  0  0  0
   -4.2444   -0.7227    0.0225 C   0  0  0  0  0  0  0  0  0  0  0  0
   -4.8116   -1.9999    0.0766 C   0  0  0  0  0  0  0  0  0  0  0  0
   -4.0023   -3.1149    0.1857 C   0  0  0  0  0  0  0  0  0  0  0  0
   -2.6278   -3.0054    0.2479 C   0  0  0  0  0  0  0  0  0  0  0  0
    0.8922   -2.7480   -0.9263 H   0  0  0  0  0  0  0  0  0  0  0  0
    2.3655   -4.6466   -0.6926 H   0  0  0  0  0  0  0  0  0  0  0  0
    4.6974   -4.3768    0.0092 H   0  0  0  0  0  0  0  0  0  0  0  0
    5.6240   -2.1765    0.4700 H   0  0  0  0  0  0  0  0  0  0  0  0
   -0.0240   -2.4861    0.4799 H   0  0  0  0  0  0  0  0  0  0  0  0
   -3.0925    3.9739   -0.2320 H   0  0  0  0  0  0  0  0  0  0  0  0
   -0.6801    4.2034   -0.1727 H   0  0  0  0  0  0  0  0  0  0  0  0
    1.1511    4.3654   -0.0387 H   0  0  0  0  0  0  0  0  0  0  0  0
    3.5712    4.6275    0.0731 H   0  0  0  0  0  0  0  0  0  0  0  0
    5.0501    2.7059    0.1952 H   0  0  0  0  0  0  0  0  0  0  0  0
    5.3589    0.2804    0.3211 H   0  0  0  0  0  0  0  0  0  0  0  0
   -5.1150    2.5430   -0.2097 H   0  0  0  0  0  0  0  0  0  0  0  0
   -6.1192    0.3450   -0.1098 H   0  0  0  0  0  0  0  0  0  0  0  0
   -5.8846   -2.1151    0.0323 H   0  0  0  0  0  0  0  0  0  0  0  0
   -4.4557   -4.0943    0.2213 H   0  0  0  0  0  0  0  0  0  0  0  0
   -2.0204   -3.8940    0.3346 H   0  0  0  0  0  0  0  0  0  0  0  0
  1  2  2  0  0  0  0
  2  3  1  0  0  0  0
  3  4  2  0  0  0  0
  4  5  1  0  0  0  0
  5  6  1  0  0  0  0
  1  6  1  0  0  0  0
  6  7  2  0  0  0  0
  7  8  1  0  0  0  0
  8  9  1  0  0  0  0
  9 10  2  0  0  0  0
 10 11  1  0  0  0  0
 11 12  2  0  0  0  0
 12 13  1  0  0  0  0
 13 14  2  0  0  0  0
 14 15  1  0  0  0  0
 15 16  2  0  0  0  0
 16 17  1  0  0  0  0
 17 18  1  0  0  0  0
 18 19  2  0  0  0  0
 19 20  1  0  0  0  0
 20 21  2  0  0  0  0
 21 22  1  0  0  0  0
  5 22  2  0  0  0  0
 21 23  1  0  0  0  0
 17 23  2  0  0  0  0
  7 23  1  0  0  0  0
 16 24  1  0  0  0  0
 12 24  1  0  0  0  0
  8 24  2  0  0  0  0
 13 25  1  0  0  0  0
 25 26  2  0  0  0  0
 26 27  1  0  0  0  0
 11 27  1  0  0  0  0
 27 28  2  0  0  0  0
 28 29  1  0  0  0  0
 29 30  2  0  0  0  0
 10 30  1  0  0  0  0
  1 31  1  0  0  0  0
  2 32  1  0  0  0  0
  3 33  1  0  0  0  0
  4 34  1  0  0  0  0
  9 35  1  0  0  0  0
 14 36  1  0  0  0  0
 15 37  1  0  0  0  0
 18 38  1  0  0  0  0
 19 39  1  0  0  0  0
 20 40  1  0  0  0  0
 22 41  1  0  0  0  0
 25 42  1  0  0  0  0
 26 43  1  0  0  0  0
 28 44  1  0  0  0  0
 29 45  1  0  0  0  0
 30 46  1  0  0  0  0
M  END
$$$$
