C18H12
APtclcactv01171906223D 0   0.00000     0.00000
 
 30 33  0  0  0  0  0  0  0  0999 V2000
    2.1997    1.7077    0.0003 C   0  0  0  0  0  0  0  0  0  0  0  0
    1.7591    0.3837    0.0005 C   0  0  0  0  0  0  0  0  0  0  0  0
    0.3240    0.0647    0.0008 C   0  0  0  0  0  0  0  0  0  0  0  0
   -0.6283    1.0704    0.0009 C   0  0  0  0  0  0  0  0  0  0  0  0
   -1.9859    0.7370    0.0007 C   0  0  0  0  0  0  0  0  0  0  0  0
   -2.3954   -0.6695    0.0003 C   0  0  0  0  0  0  0  0  0  0  0  0
   -1.4305   -1.6793    0.0003 C   0  0  0  0  0  0  0  0  0  0  0  0
   -0.0816   -1.3417    0.0005 C   0  0  0  0  0  0  0  0  0  0  0  0
    0.9464   -2.3812   -0.0001 C   0  0  0  0  0  0  0  0  0  0  0  0
    2.2534   -2.0580   -0.0004 C   0  0  0  0  0  0  0  0  0  0  0  0
    2.6993   -0.6683   -0.0001 C   0  0  0  0  0  0  0  0  0  0  0  0
    4.0671   -0.3621   -0.0005 C   0  0  0  0  0  0  0  0  0  0  0  0
    4.4749    0.9403   -0.0003 C   0  0  0  0  0  0  0  0  0  0  0  0
    3.5503    1.9763   -0.0005 C   0  0  0  0  0  0  0  0  0  0  0  0
   -3.7719   -0.9747   -0.0004 C   0  0  0  0  0  0  0  0  0  0  0  0
   -4.6819    0.0342   -0.0007 C   0  0  0  0  0  0  0  0  0  0  0  0
   -4.2919    1.3724   -0.0009 C   0  0  0  0  0  0  0  0  0  0  0  0
   -2.9820    1.7338    0.0003 C   0  0  0  0  0  0  0  0  0  0  0  0
    1.4853    2.5176   -0.0037 H   0  0  0  0  0  0  0  0  0  0  0  0
   -0.3237    2.1066    0.0015 H   0  0  0  0  0  0  0  0  0  0  0  0
   -1.7305   -2.7168   -0.0003 H   0  0  0  0  0  0  0  0  0  0  0  0
    0.6539   -3.4209    0.0001 H   0  0  0  0  0  0  0  0  0  0  0  0
    2.9906   -2.8472   -0.0004 H   0  0  0  0  0  0  0  0  0  0  0  0
    4.7984   -1.1569   -0.0006 H   0  0  0  0  0  0  0  0  0  0  0  0
    5.5306    1.1682   -0.0006 H   0  0  0  0  0  0  0  0  0  0  0  0
    3.8931    3.0004   -0.0002 H   0  0  0  0  0  0  0  0  0  0  0  0
   -4.1007   -2.0034   -0.0010 H   0  0  0  0  0  0  0  0  0  0  0  0
   -5.7347   -0.2070   -0.0013 H   0  0  0  0  0  0  0  0  0  0  0  0
   -5.0500    2.1416   -0.0015 H   0  0  0  0  0  0  0  0  0  0  0  0
   -2.7061    2.7780    0.0005 H   0  0  0  0  0  0  0  0  0  0  0  0
  1  2  2  0  0  0  0
  2  3  1  0  0  0  0
  3  4  1  0  0  0  0
  4  5  2  0  0  0  0
  5  6  1  0  0  0  0
  6  7  2  0  0  0  0
  7  8  1  0  0  0  0
  3  8  2  0  0  0  0
  8  9  1  0  0  0  0
  9 10  2  0  0  0  0
 10 11  1  0  0  0  0
  2 11  1  0  0  0  0
 11 12  2  0  0  0  0
 12 13  1  0  0  0  0
 13 14  2  0  0  0  0
  1 14  1  0  0  0  0
  6 15  1  0  0  0  0
 15 16  2  0  0  0  0
 16 17  1  0  0  0  0
 17 18  2  0  0  0  0
  5 18  1  0  0  0  0
  1 19  1  0  0  0  0
  4 20  1  0  0  0  0
  7 21  1  0  0  0  0
  9 22  1  0  0  0  0
 10 23  1  0  0  0  0
 12 24  1  0  0  0  0
 13 25  1  0  0  0  0
 14 26  1  0  0  0  0
 15 27  1  0  0  0  0
 16 28  1  0  0  0  0
 17 29  1  0  0  0  0
 18 30  1  0  0  0  0
M  END
$$$$
