C24H14
APtclcactv01171906243D 0   0.00000     0.00000
 
 38 43  0  0  0  0  0  0  0  0999 V2000
    2.9312    3.1535   -0.0001 C   0  0  0  0  0  0  0  0  0  0  0  0
    1.9777    2.1104    0.0005 C   0  0  0  0  0  0  0  0  0  0  0  0
    0.5891    2.0939    0.0004 C   0  0  0  0  0  0  0  0  0  0  0  0
    0.1463    0.7542    0.0003 C   0  0  0  0  0  0  0  0  0  0  0  0
    1.3353   -0.1156    0.0005 C   0  0  0  0  0  0  0  0  0  0  0  0
    1.1615   -1.5702    0.0002 C   0  0  0  0  0  0  0  0  0  0  0  0
   -0.1411   -2.1108   -0.0004 C   0  0  0  0  0  0  0  0  0  0  0  0
   -1.3134   -1.2122   -0.0002 C   0  0  0  0  0  0  0  0  0  0  0  0
   -2.6723   -1.4942   -0.0008 C   0  0  0  0  0  0  0  0  0  0  0  0
   -3.4243   -0.2300   -0.0003 C   0  0  0  0  0  0  0  0  0  0  0  0
   -4.7828    0.0647   -0.0006 C   0  0  0  0  0  0  0  0  0  0  0  0
   -5.2033    1.3936    0.0001 C   0  0  0  0  0  0  0  0  0  0  0  0
   -4.2817    2.4151    0.0006 C   0  0  0  0  0  0  0  0  0  0  0  0
   -2.9128    2.1314    0.0004 C   0  0  0  0  0  0  0  0  0  0  0  0
   -2.4834    0.8205    0.0007 C   0  0  0  0  0  0  0  0  0  0  0  0
   -1.1345    0.1919   -0.0003 C   0  0  0  0  0  0  0  0  0  0  0  0
   -0.3118   -3.4935   -0.0006 C   0  0  0  0  0  0  0  0  0  0  0  0
    0.7921   -4.3217   -0.0003 C   0  0  0  0  0  0  0  0  0  0  0  0
    2.0740   -3.7912    0.0007 C   0  0  0  0  0  0  0  0  0  0  0  0
    2.2669   -2.4269    0.0010 C   0  0  0  0  0  0  0  0  0  0  0  0
    2.4598    0.7176    0.0005 C   0  0  0  0  0  0  0  0  0  0  0  0
    3.8473    0.4815   -0.0002 C   0  0  0  0  0  0  0  0  0  0  0  0
    4.7087    1.5323   -0.0008 C   0  0  0  0  0  0  0  0  0  0  0  0
    4.2547    2.8535   -0.0008 C   0  0  0  0  0  0  0  0  0  0  0  0
    2.6082    4.1841   -0.0046 H   0  0  0  0  0  0  0  0  0  0  0  0
   -0.0487    2.9655    0.0007 H   0  0  0  0  0  0  0  0  0  0  0  0
   -3.1076   -2.4826   -0.0021 H   0  0  0  0  0  0  0  0  0  0  0  0
   -5.5102   -0.7336   -0.0017 H   0  0  0  0  0  0  0  0  0  0  0  0
   -6.2587    1.6228   -0.0001 H   0  0  0  0  0  0  0  0  0  0  0  0
   -4.6175    3.4415    0.0008 H   0  0  0  0  0  0  0  0  0  0  0  0
   -2.1931    2.9367    0.0001 H   0  0  0  0  0  0  0  0  0  0  0  0
   -1.3056   -3.9162   -0.0007 H   0  0  0  0  0  0  0  0  0  0  0  0
    0.6568   -5.3932   -0.0005 H   0  0  0  0  0  0  0  0  0  0  0  0
    2.9275   -4.4529    0.0013 H   0  0  0  0  0  0  0  0  0  0  0  0
    3.2676   -2.0208    0.0017 H   0  0  0  0  0  0  0  0  0  0  0  0
    4.2254   -0.5301    0.0001 H   0  0  0  0  0  0  0  0  0  0  0  0
    5.7717    1.3412   -0.0010 H   0  0  0  0  0  0  0  0  0  0  0  0
    4.9759    3.6573   -0.0012 H   0  0  0  0  0  0  0  0  0  0  0  0
  1  2  2  0  0  0  0
  2  3  1  0  0  0  0
  3  4  2  0  0  0  0
  4  5  1  0  0  0  0
  5  6  2  0  0  0  0
  6  7  1  0  0  0  0
  7  8  2  0  0  0  0
  8  9  1  0  0  0  0
  9 10  2  0  0  0  0
 10 11  1  0  0  0  0
 11 12  2  0  0  0  0
 12 13  1  0  0  0  0
 13 14  2  0  0  0  0
 14 15  1  0  0  0  0
 10 15  1  0  0  0  0
 15 16  2  0  0  0  0
  4 16  1  0  0  0  0
  8 16  1  0  0  0  0
  7 17  1  0  0  0  0
 17 18  2  0  0  0  0
 18 19  1  0  0  0  0
 19 20  2  0  0  0  0
  6 20  1  0  0  0  0
  5 21  1  0  0  0  0
  2 21  1  0  0  0  0
 21 22  2  0  0  0  0
 22 23  1  0  0  0  0
 23 24  2  0  0  0  0
  1 24  1  0  0  0  0
  1 25  1  0  0  0  0
  3 26  1  0  0  0  0
  9 27  1  0  0  0  0
 11 28  1  0  0  0  0
 12 29  1  0  0  0  0
 13 30  1  0  0  0  0
 14 31  1  0  0  0  0
 17 32  1  0  0  0  0
 18 33  1  0  0  0  0
 19 34  1  0  0  0  0
 20 35  1  0  0  0  0
 22 36  1  0  0  0  0
 23 37  1  0  0  0  0
 24 38  1  0  0  0  0
M  END
$$$$
