C36H18
APtclcactv01171906243D 0   0.00000     0.00000
 
 54 63  0  0  0  0  0  0  0  0999 V2000
    6.6816   -1.3964    0.0441 C   0  0  0  0  0  0  0  0  0  0  0  0
    5.3361   -0.9907   -0.0468 C   0  0  0  0  0  0  0  0  0  0  0  0
    4.3285   -1.9491   -0.2511 C   0  0  0  0  0  0  0  0  0  0  0  0
    2.9984   -1.5730   -0.3166 C   0  0  0  0  0  0  0  0  0  0  0  0
    1.9322   -2.5386   -0.5765 C   0  0  0  0  0  0  0  0  0  0  0  0
    0.6426   -2.1352   -0.5645 C   0  0  0  0  0  0  0  0  0  0  0  0
    0.2633   -0.8115   -0.2473 C   0  0  0  0  0  0  0  0  0  0  0  0
   -1.0862   -0.4680   -0.0478 C   0  0  0  0  0  0  0  0  0  0  0  0
   -1.4650    0.8969   -0.0163 C   0  0  0  0  0  0  0  0  0  0  0  0
   -2.8315    1.2577   -0.0181 C   0  0  0  0  0  0  0  0  0  0  0  0
   -3.2060    2.6179   -0.0075 C   0  0  0  0  0  0  0  0  0  0  0  0
   -2.2066    3.6105    0.0601 C   0  0  0  0  0  0  0  0  0  0  0  0
   -0.8938    3.2670    0.0763 C   0  0  0  0  0  0  0  0  0  0  0  0
   -0.4930    1.9212    0.0244 C   0  0  0  0  0  0  0  0  0  0  0  0
    0.9209    1.5516    0.0134 C   0  0  0  0  0  0  0  0  0  0  0  0
    1.2630    0.1888   -0.1255 C   0  0  0  0  0  0  0  0  0  0  0  0
    2.6248   -0.1692   -0.1342 C   0  0  0  0  0  0  0  0  0  0  0  0
    3.6204    0.8121    0.0221 C   0  0  0  0  0  0  0  0  0  0  0  0
    5.0205    0.3877    0.0589 C   0  0  0  0  0  0  0  0  0  0  0  0
    6.0569    1.3176    0.1855 C   0  0  0  0  0  0  0  0  0  0  0  0
    7.3530    0.8919    0.2411 C   0  0  0  0  0  0  0  0  0  0  0  0
    7.6626   -0.4635    0.1801 C   0  0  0  0  0  0  0  0  0  0  0  0
    3.2468    2.1610    0.1379 C   0  0  0  0  0  0  0  0  0  0  0  0
    1.9325    2.5168    0.1336 C   0  0  0  0  0  0  0  0  0  0  0  0
   -4.5696    2.9634   -0.0711 C   0  0  0  0  0  0  0  0  0  0  0  0
   -5.5316    2.0072   -0.1325 C   0  0  0  0  0  0  0  0  0  0  0  0
   -5.1921    0.6415   -0.1158 C   0  0  0  0  0  0  0  0  0  0  0  0
   -6.1836   -0.3609   -0.1954 C   0  0  0  0  0  0  0  0  0  0  0  0
   -5.8565   -1.6702   -0.0847 C   0  0  0  0  0  0  0  0  0  0  0  0
   -4.5137   -2.0653    0.1142 C   0  0  0  0  0  0  0  0  0  0  0  0
   -4.1767   -3.4027    0.3604 C   0  0  0  0  0  0  0  0  0  0  0  0
   -2.8581   -3.7511    0.5546 C   0  0  0  0  0  0  0  0  0  0  0  0
   -1.8442   -2.8091    0.4707 C   0  0  0  0  0  0  0  0  0  0  0  0
   -2.1280   -1.4835    0.1681 C   0  0  0  0  0  0  0  0  0  0  0  0
   -3.4874   -1.0960    0.0748 C   0  0  0  0  0  0  0  0  0  0  0  0
   -3.8347    0.2673   -0.0209 C   0  0  0  0  0  0  0  0  0  0  0  0
    6.9330   -2.4461    0.0103 H   0  0  0  0  0  0  0  0  0  0  0  0
    4.5948   -2.9905   -0.3530 H   0  0  0  0  0  0  0  0  0  0  0  0
    2.1748   -3.5714   -0.7785 H   0  0  0  0  0  0  0  0  0  0  0  0
   -0.1129   -2.8494   -0.8584 H   0  0  0  0  0  0  0  0  0  0  0  0
   -2.4869    4.6523    0.1007 H   0  0  0  0  0  0  0  0  0  0  0  0
   -0.1473    4.0452    0.1289 H   0  0  0  0  0  0  0  0  0  0  0  0
    5.8391    2.3735    0.2375 H   0  0  0  0  0  0  0  0  0  0  0  0
    8.1489    1.6162    0.3312 H   0  0  0  0  0  0  0  0  0  0  0  0
    8.6932   -0.7788    0.2418 H   0  0  0  0  0  0  0  0  0  0  0  0
    4.0034    2.9257    0.2303 H   0  0  0  0  0  0  0  0  0  0  0  0
    1.6703    3.5604    0.2230 H   0  0  0  0  0  0  0  0  0  0  0  0
   -4.8561    4.0044   -0.0679 H   0  0  0  0  0  0  0  0  0  0  0  0
   -6.5700    2.2971   -0.1935 H   0  0  0  0  0  0  0  0  0  0  0  0
   -7.2150   -0.0799   -0.3452 H   0  0  0  0  0  0  0  0  0  0  0  0
   -6.6294   -2.4218   -0.1493 H   0  0  0  0  0  0  0  0  0  0  0  0
   -4.9482   -4.1570    0.3933 H   0  0  0  0  0  0  0  0  0  0  0  0
   -2.6090   -4.7785    0.7778 H   0  0  0  0  0  0  0  0  0  0  0  0
   -0.8331   -3.1183    0.6923 H   0  0  0  0  0  0  0  0  0  0  0  0
  1  2  2  0  0  0  0
  2  3  1  0  0  0  0
  3  4  2  0  0  0  0
  4  5  1  0  0  0  0
  5  6  2  0  0  0  0
  6  7  1  0  0  0  0
  7  8  2  0  0  0  0
  8  9  1  0  0  0  0
  9 10  1  0  0  0  0
 10 11  2  0  0  0  0
 11 12  1  0  0  0  0
 12 13  2  0  0  0  0
 13 14  1  0  0  0  0
  9 14  2  0  0  0  0
 14 15  1  0  0  0  0
 15 16  2  0  0  0  0
  7 16  1  0  0  0  0
 16 17  1  0  0  0  0
  4 17  1  0  0  0  0
 17 18  2  0  0  0  0
 18 19  1  0  0  0  0
  2 19  1  0  0  0  0
 19 20  2  0  0  0  0
 20 21  1  0  0  0  0
 21 22  2  0  0  0  0
  1 22  1  0  0  0  0
 18 23  1  0  0  0  0
 23 24  2  0  0  0  0
 15 24  1  0  0  0  0
 11 25  1  0  0  0  0
 25 26  2  0  0  0  0
 26 27  1  0  0  0  0
 27 28  2  0  0  0  0
 28 29  1  0  0  0  0
 29 30  2  0  0  0  0
 30 31  1  0  0  0  0
 31 32  2  0  0  0  0
 32 33  1  0  0  0  0
 33 34  2  0  0  0  0
  8 34  1  0  0  0  0
 34 35  1  0  0  0  0
 30 35  1  0  0  0  0
 35 36  2  0  0  0  0
 27 36  1  0  0  0  0
 10 36  1  0  0  0  0
  1 37  1  0  0  0  0
  3 38  1  0  0  0  0
  5 39  1  0  0  0  0
  6 40  1  0  0  0  0
 12 41  1  0  0  0  0
 13 42  1  0  0  0  0
 20 43  1  0  0  0  0
 21 44  1  0  0  0  0
 22 45  1  0  0  0  0
 23 46  1  0  0  0  0
 24 47  1  0  0  0  0
 25 48  1  0  0  0  0
 26 49  1  0  0  0  0
 28 50  1  0  0  0  0
 29 51  1  0  0  0  0
 31 52  1  0  0  0  0
 32 53  1  0  0  0  0
 33 54  1  0  0  0  0
M  END
$$$$
