C30H16
APtclcactv01171906233D 0   0.00000     0.00000
 
 46 53  0  0  0  0  0  0  0  0999 V2000
    5.1493   -1.7348    0.1180 C   0  0  0  0  0  0  0  0  0  0  0  0
    3.8096   -1.3561    0.2354 C   0  0  0  0  0  0  0  0  0  0  0  0
    2.7939   -2.2937    0.5332 C   0  0  0  0  0  0  0  0  0  0  0  0
    1.4933   -1.9172    0.5576 C   0  0  0  0  0  0  0  0  0  0  0  0
    1.1032   -0.6016    0.2318 C   0  0  0  0  0  0  0  0  0  0  0  0
   -0.2425   -0.2329    0.0400 C   0  0  0  0  0  0  0  0  0  0  0  0
   -1.3101   -1.2267   -0.1294 C   0  0  0  0  0  0  0  0  0  0  0  0
   -2.6618   -0.8196   -0.0546 C   0  0  0  0  0  0  0  0  0  0  0  0
   -3.0014    0.5489    0.0233 C   0  0  0  0  0  0  0  0  0  0  0  0
   -4.3610    0.9248    0.1172 C   0  0  0  0  0  0  0  0  0  0  0  0
   -4.6961    2.2834    0.1176 C   0  0  0  0  0  0  0  0  0  0  0  0
   -3.7058    3.2385    0.0447 C   0  0  0  0  0  0  0  0  0  0  0  0
   -2.3689    2.8800   -0.0064 C   0  0  0  0  0  0  0  0  0  0  0  0
   -1.9994    1.5395    0.0007 C   0  0  0  0  0  0  0  0  0  0  0  0
   -0.5801    1.1402   -0.0013 C   0  0  0  0  0  0  0  0  0  0  0  0
    0.4144    2.1139   -0.0646 C   0  0  0  0  0  0  0  0  0  0  0  0
    1.7595    1.7502   -0.0460 C   0  0  0  0  0  0  0  0  0  0  0  0
    2.1073    0.3852    0.0868 C   0  0  0  0  0  0  0  0  0  0  0  0
    3.4609    0.0034    0.0606 C   0  0  0  0  0  0  0  0  0  0  0  0
    4.4708    0.9724   -0.1328 C   0  0  0  0  0  0  0  0  0  0  0  0
    5.8003    0.5560   -0.2396 C   0  0  0  0  0  0  0  0  0  0  0  0
    6.1203   -0.7833   -0.1262 C   0  0  0  0  0  0  0  0  0  0  0  0
    4.1101    2.3852   -0.2097 C   0  0  0  0  0  0  0  0  0  0  0  0
    2.8107    2.7576   -0.1622 C   0  0  0  0  0  0  0  0  0  0  0  0
   -5.3614   -0.0730    0.2055 C   0  0  0  0  0  0  0  0  0  0  0  0
   -5.0389   -1.3814    0.1155 C   0  0  0  0  0  0  0  0  0  0  0  0
   -3.6945   -1.7841   -0.0712 C   0  0  0  0  0  0  0  0  0  0  0  0
   -3.3719   -3.1270   -0.2967 C   0  0  0  0  0  0  0  0  0  0  0  0
   -2.0576   -3.4938   -0.4876 C   0  0  0  0  0  0  0  0  0  0  0  0
   -1.0376   -2.5602   -0.4234 C   0  0  0  0  0  0  0  0  0  0  0  0
    5.4265   -2.7742    0.2139 H   0  0  0  0  0  0  0  0  0  0  0  0
    3.0571   -3.3197    0.7428 H   0  0  0  0  0  0  0  0  0  0  0  0
    0.7546   -2.6369    0.8786 H   0  0  0  0  0  0  0  0  0  0  0  0
   -5.7322    2.5827    0.1727 H   0  0  0  0  0  0  0  0  0  0  0  0
   -3.9764    4.2836    0.0232 H   0  0  0  0  0  0  0  0  0  0  0  0
   -1.6155    3.6518   -0.0541 H   0  0  0  0  0  0  0  0  0  0  0  0
    0.1485    3.1583   -0.1282 H   0  0  0  0  0  0  0  0  0  0  0  0
    6.5803    1.2830   -0.4113 H   0  0  0  0  0  0  0  0  0  0  0  0
    7.1493   -1.0931   -0.2331 H   0  0  0  0  0  0  0  0  0  0  0  0
    4.8827    3.1341   -0.3021 H   0  0  0  0  0  0  0  0  0  0  0  0
    2.5502    3.8050   -0.2065 H   0  0  0  0  0  0  0  0  0  0  0  0
   -6.3919    0.2147    0.3492 H   0  0  0  0  0  0  0  0  0  0  0  0
   -5.8149   -2.1289    0.1870 H   0  0  0  0  0  0  0  0  0  0  0  0
   -4.1511   -3.8736   -0.3190 H   0  0  0  0  0  0  0  0  0  0  0  0
   -1.8177   -4.5270   -0.6913 H   0  0  0  0  0  0  0  0  0  0  0  0
   -0.0308   -2.8764   -0.6504 H   0  0  0  0  0  0  0  0  0  0  0  0
  1  2  2  0  0  0  0
  2  3  1  0  0  0  0
  3  4  2  0  0  0  0
  4  5  1  0  0  0  0
  5  6  1  0  0  0  0
  6  7  1  0  0  0  0
  7  8  2  0  0  0  0
  8  9  1  0  0  0  0
  9 10  1  0  0  0  0
 10 11  2  0  0  0  0
 11 12  1  0  0  0  0
 12 13  2  0  0  0  0
 13 14  1  0  0  0  0
  9 14  2  0  0  0  0
 14 15  1  0  0  0  0
  6 15  2  0  0  0  0
 15 16  1  0  0  0  0
 16 17  2  0  0  0  0
 17 18  1  0  0  0  0
  5 18  2  0  0  0  0
 18 19  1  0  0  0  0
  2 19  1  0  0  0  0
 19 20  2  0  0  0  0
 20 21  1  0  0  0  0
 21 22  2  0  0  0  0
  1 22  1  0  0  0  0
 20 23  1  0  0  0  0
 23 24  2  0  0  0  0
 17 24  1  0  0  0  0
 10 25  1  0  0  0  0
 25 26  2  0  0  0  0
 26 27  1  0  0  0  0
  8 27  1  0  0  0  0
 27 28  2  0  0  0  0
 28 29  1  0  0  0  0
 29 30  2  0  0  0  0
  7 30  1  0  0  0  0
  1 31  1  0  0  0  0
  3 32  1  0  0  0  0
  4 33  1  0  0  0  0
 11 34  1  0  0  0  0
 12 35  1  0  0  0  0
 13 36  1  0  0  0  0
 16 37  1  0  0  0  0
 21 38  1  0  0  0  0
 22 39  1  0  0  0  0
 23 40  1  0  0  0  0
 24 41  1  0  0  0  0
 25 42  1  0  0  0  0
 26 43  1  0  0  0  0
 28 44  1  0  0  0  0
 29 45  1  0  0  0  0
 30 46  1  0  0  0  0
M  END
$$$$
