C30H18
APtclcactv01171906223D 0   0.00000     0.00000
 
 48 54  0  0  0  0  0  0  0  0999 V2000
    3.3517   -1.8704    0.4692 C   0  0  0  0  0  0  0  0  0  0  0  0
    4.0427   -3.0430    0.3654 C   0  0  0  0  0  0  0  0  0  0  0  0
    5.3848   -3.0509    0.0002 C   0  0  0  0  0  0  0  0  0  0  0  0
    6.0489   -1.8812   -0.2163 C   0  0  0  0  0  0  0  0  0  0  0  0
    5.3694   -0.6612   -0.0881 C   0  0  0  0  0  0  0  0  0  0  0  0
    6.0651    0.5634   -0.1507 C   0  0  0  0  0  0  0  0  0  0  0  0
    5.4050    1.7398   -0.1051 C   0  0  0  0  0  0  0  0  0  0  0  0
    3.9960    1.7928   -0.0365 C   0  0  0  0  0  0  0  0  0  0  0  0
    3.2469    0.6012    0.0151 C   0  0  0  0  0  0  0  0  0  0  0  0
    1.7863    0.6924   -0.0298 C   0  0  0  0  0  0  0  0  0  0  0  0
    0.9721   -0.4169   -0.1683 C   0  0  0  0  0  0  0  0  0  0  0  0
   -0.4236   -0.2847   -0.1102 C   0  0  0  0  0  0  0  0  0  0  0  0
   -1.2446   -1.4194   -0.1756 C   0  0  0  0  0  0  0  0  0  0  0  0
   -2.6236   -1.2774   -0.1134 C   0  0  0  0  0  0  0  0  0  0  0  0
   -3.4919   -2.4538   -0.1434 C   0  0  0  0  0  0  0  0  0  0  0  0
   -4.8305   -2.3234   -0.0958 C   0  0  0  0  0  0  0  0  0  0  0  0
   -5.4707   -1.0132   -0.0257 C   0  0  0  0  0  0  0  0  0  0  0  0
   -4.6931    0.1635    0.0073 C   0  0  0  0  0  0  0  0  0  0  0  0
   -3.2264    0.0557   -0.0190 C   0  0  0  0  0  0  0  0  0  0  0  0
   -2.4255    1.1799    0.0491 C   0  0  0  0  0  0  0  0  0  0  0  0
   -1.0280    1.0458    0.0109 C   0  0  0  0  0  0  0  0  0  0  0  0
   -0.2045    2.1750    0.0784 C   0  0  0  0  0  0  0  0  0  0  0  0
    1.1763    2.0284    0.0467 C   0  0  0  0  0  0  0  0  0  0  0  0
    2.0129    3.1712    0.0602 C   0  0  0  0  0  0  0  0  0  0  0  0
    3.3514    3.0508    0.0089 C   0  0  0  0  0  0  0  0  0  0  0  0
   -5.3248    1.4068    0.0600 C   0  0  0  0  0  0  0  0  0  0  0  0
   -6.7002    1.4739    0.0859 C   0  0  0  0  0  0  0  0  0  0  0  0
   -7.4637    0.3145    0.0633 C   0  0  0  0  0  0  0  0  0  0  0  0
   -6.8685   -0.9122    0.0090 C   0  0  0  0  0  0  0  0  0  0  0  0
    3.9659   -0.6613    0.1314 C   0  0  0  0  0  0  0  0  0  0  0  0
    2.3496   -1.8893    0.8710 H   0  0  0  0  0  0  0  0  0  0  0  0
    3.5391   -3.9763    0.5685 H   0  0  0  0  0  0  0  0  0  0  0  0
    5.9034   -3.9897   -0.1142 H   0  0  0  0  0  0  0  0  0  0  0  0
    7.0952   -1.8935   -0.4862 H   0  0  0  0  0  0  0  0  0  0  0  0
    7.1415    0.5591   -0.2322 H   0  0  0  0  0  0  0  0  0  0  0  0
    5.9666    2.6620   -0.1199 H   0  0  0  0  0  0  0  0  0  0  0  0
    1.3902   -1.3889   -0.3802 H   0  0  0  0  0  0  0  0  0  0  0  0
   -0.8054   -2.4011   -0.2738 H   0  0  0  0  0  0  0  0  0  0  0  0
   -3.0533   -3.4394   -0.2022 H   0  0  0  0  0  0  0  0  0  0  0  0
   -5.4466   -3.2100   -0.1069 H   0  0  0  0  0  0  0  0  0  0  0  0
   -2.8684    2.1613    0.1303 H   0  0  0  0  0  0  0  0  0  0  0  0
   -0.6411    3.1604    0.1550 H   0  0  0  0  0  0  0  0  0  0  0  0
    1.5678    4.1537    0.1143 H   0  0  0  0  0  0  0  0  0  0  0  0
    3.9563    3.9454    0.0002 H   0  0  0  0  0  0  0  0  0  0  0  0
   -4.7422    2.3156    0.0786 H   0  0  0  0  0  0  0  0  0  0  0  0
   -7.1882    2.4368    0.1220 H   0  0  0  0  0  0  0  0  0  0  0  0
   -8.5410    0.3844    0.0879 H   0  0  0  0  0  0  0  0  0  0  0  0
   -7.4746   -1.8061   -0.0060 H   0  0  0  0  0  0  0  0  0  0  0  0
  1  2  2  0  0  0  0
  2  3  1  0  0  0  0
  3  4  2  0  0  0  0
  4  5  1  0  0  0  0
  5  6  1  0  0  0  0
  6  7  2  0  0  0  0
  7  8  1  0  0  0  0
  8  9  1  0  0  0  0
  9 10  2  0  0  0  0
 10 11  1  0  0  0  0
 11 12  2  0  0  0  0
 12 13  1  0  0  0  0
 13 14  2  0  0  0  0
 14 15  1  0  0  0  0
 15 16  2  0  0  0  0
 16 17  1  0  0  0  0
 17 18  2  0  0  0  0
 18 19  1  0  0  0  0
 14 19  1  0  0  0  0
 19 20  2  0  0  0  0
 20 21  1  0  0  0  0
 12 21  1  0  0  0  0
 21 22  2  0  0  0  0
 22 23  1  0  0  0  0
 10 23  1  0  0  0  0
 23 24  2  0  0  0  0
 24 25  1  0  0  0  0
  8 25  2  0  0  0  0
 18 26  1  0  0  0  0
 26 27  2  0  0  0  0
 27 28  1  0  0  0  0
 28 29  2  0  0  0  0
 17 29  1  0  0  0  0
  9 30  1  0  0  0  0
  1 30  1  0  0  0  0
  5 30  2  0  0  0  0
  1 31  1  0  0  0  0
  2 32  1  0  0  0  0
  3 33  1  0  0  0  0
  4 34  1  0  0  0  0
  6 35  1  0  0  0  0
  7 36  1  0  0  0  0
 11 37  1  0  0  0  0
 13 38  1  0  0  0  0
 15 39  1  0  0  0  0
 16 40  1  0  0  0  0
 20 41  1  0  0  0  0
 22 42  1  0  0  0  0
 24 43  1  0  0  0  0
 25 44  1  0  0  0  0
 26 45  1  0  0  0  0
 27 46  1  0  0  0  0
 28 47  1  0  0  0  0
 29 48  1  0  0  0  0
M  END
$$$$
