C20H12
APtclcactv01171906223D 0   0.00000     0.00000
 
 32 36  0  0  0  0  0  0  0  0999 V2000
   -3.5068    1.6721    0.0006 C   0  0  0  0  0  0  0  0  0  0  0  0
   -4.4112    0.6312   -0.0001 C   0  0  0  0  0  0  0  0  0  0  0  0
   -3.9942   -0.6880    0.0000 C   0  0  0  0  0  0  0  0  0  0  0  0
   -2.6322   -0.9952    0.0002 C   0  0  0  0  0  0  0  0  0  0  0  0
   -2.1706   -2.3811   -0.0002 C   0  0  0  0  0  0  0  0  0  0  0  0
   -0.8529   -2.6779   -0.0005 C   0  0  0  0  0  0  0  0  0  0  0  0
    0.1432   -1.6060    0.0000 C   0  0  0  0  0  0  0  0  0  0  0  0
    1.5010   -1.8801   -0.0004 C   0  0  0  0  0  0  0  0  0  0  0  0
    2.4450   -0.8407    0.0001 C   0  0  0  0  0  0  0  0  0  0  0  0
    2.0354    0.5167    0.0002 C   0  0  0  0  0  0  0  0  0  0  0  0
    0.6104    0.8410   -0.0003 C   0  0  0  0  0  0  0  0  0  0  0  0
    0.1512    2.1715   -0.0006 C   0  0  0  0  0  0  0  0  0  0  0  0
   -1.1771    2.4479   -0.0010 C   0  0  0  0  0  0  0  0  0  0  0  0
   -2.1319    1.4065    0.0009 C   0  0  0  0  0  0  0  0  0  0  0  0
   -1.6949    0.0621    0.0004 C   0  0  0  0  0  0  0  0  0  0  0  0
   -0.3166   -0.2167    0.0005 C   0  0  0  0  0  0  0  0  0  0  0  0
    3.0015    1.5304    0.0002 C   0  0  0  0  0  0  0  0  0  0  0  0
    4.3254    1.2058    0.0002 C   0  0  0  0  0  0  0  0  0  0  0  0
    4.7332   -0.1260    0.0001 C   0  0  0  0  0  0  0  0  0  0  0  0
    3.8228   -1.1369    0.0000 C   0  0  0  0  0  0  0  0  0  0  0  0
   -3.8592    2.6930   -0.0037 H   0  0  0  0  0  0  0  0  0  0  0  0
   -5.4687    0.8505   -0.0003 H   0  0  0  0  0  0  0  0  0  0  0  0
   -4.7250   -1.4832    0.0002 H   0  0  0  0  0  0  0  0  0  0  0  0
   -2.8952   -3.1819    0.0002 H   0  0  0  0  0  0  0  0  0  0  0  0
   -0.5336   -3.7096   -0.0008 H   0  0  0  0  0  0  0  0  0  0  0  0
    1.8378   -2.9062   -0.0007 H   0  0  0  0  0  0  0  0  0  0  0  0
    0.8648    2.9822   -0.0000 H   0  0  0  0  0  0  0  0  0  0  0  0
   -1.5084    3.4758   -0.0005 H   0  0  0  0  0  0  0  0  0  0  0  0
    2.6984    2.5669   -0.0000 H   0  0  0  0  0  0  0  0  0  0  0  0
    5.0671    1.9908   -0.0001 H   0  0  0  0  0  0  0  0  0  0  0  0
    5.7876   -0.3595   -0.0003 H   0  0  0  0  0  0  0  0  0  0  0  0
    4.1553   -2.1644    0.0003 H   0  0  0  0  0  0  0  0  0  0  0  0
  1  2  2  0  0  0  0
  2  3  1  0  0  0  0
  3  4  2  0  0  0  0
  4  5  1  0  0  0  0
  5  6  2  0  0  0  0
  6  7  1  0  0  0  0
  7  8  1  0  0  0  0
  8  9  2  0  0  0  0
  9 10  1  0  0  0  0
 10 11  2  0  0  0  0
 11 12  1  0  0  0  0
 12 13  2  0  0  0  0
 13 14  1  0  0  0  0
  1 14  1  0  0  0  0
 14 15  2  0  0  0  0
  4 15  1  0  0  0  0
 15 16  1  0  0  0  0
 11 16  1  0  0  0  0
  7 16  2  0  0  0  0
 10 17  1  0  0  0  0
 17 18  2  0  0  0  0
 18 19  1  0  0  0  0
 19 20  2  0  0  0  0
  9 20  1  0  0  0  0
  1 21  1  0  0  0  0
  2 22  1  0  0  0  0
  3 23  1  0  0  0  0
  5 24  1  0  0  0  0
  6 25  1  0  0  0  0
  8 26  1  0  0  0  0
 12 27  1  0  0  0  0
 13 28  1  0  0  0  0
 17 29  1  0  0  0  0
 18 30  1  0  0  0  0
 19 31  1  0  0  0  0
 20 32  1  0  0  0  0
M  END
$$$$
