C20H12
APtclcactv01171906233D 0   0.00000     0.00000
 
 32 36  0  0  0  0  0  0  0  0999 V2000
   -2.7583   -2.2502   -0.0003 C   0  0  0  0  0  0  0  0  0  0  0  0
   -4.0683   -1.8744   -0.0010 C   0  0  0  0  0  0  0  0  0  0  0  0
   -4.4245   -0.5304   -0.0010 C   0  0  0  0  0  0  0  0  0  0  0  0
   -3.4694    0.4461   -0.0004 C   0  0  0  0  0  0  0  0  0  0  0  0
   -2.1172    0.0965    0.0002 C   0  0  0  0  0  0  0  0  0  0  0  0
   -1.0730    1.1271    0.0004 C   0  0  0  0  0  0  0  0  0  0  0  0
    0.2770    0.7263    0.0006 C   0  0  0  0  0  0  0  0  0  0  0  0
    1.3031    1.6994    0.0002 C   0  0  0  0  0  0  0  0  0  0  0  0
    2.6615    1.3186   -0.0001 C   0  0  0  0  0  0  0  0  0  0  0  0
    3.0431   -0.0061   -0.0000 C   0  0  0  0  0  0  0  0  0  0  0  0
    2.0287   -1.0779    0.0008 C   0  0  0  0  0  0  0  0  0  0  0  0
    0.6080   -0.6987    0.0006 C   0  0  0  0  0  0  0  0  0  0  0  0
   -0.3928   -1.6480    0.0019 C   0  0  0  0  0  0  0  0  0  0  0  0
   -1.7494   -1.2701    0.0003 C   0  0  0  0  0  0  0  0  0  0  0  0
    2.7117   -2.2742    0.0002 C   0  0  0  0  0  0  0  0  0  0  0  0
    4.0876   -2.0290   -0.0010 C   0  0  0  0  0  0  0  0  0  0  0  0
    4.3341   -0.6915   -0.0012 C   0  0  0  0  0  0  0  0  0  0  0  0
    0.9498    3.0569   -0.0003 C   0  0  0  0  0  0  0  0  0  0  0  0
   -0.3792    3.4318   -0.0004 C   0  0  0  0  0  0  0  0  0  0  0  0
   -1.3881    2.4880    0.0008 C   0  0  0  0  0  0  0  0  0  0  0  0
   -2.4955   -3.2978    0.0042 H   0  0  0  0  0  0  0  0  0  0  0  0
   -4.8397   -2.6303   -0.0018 H   0  0  0  0  0  0  0  0  0  0  0  0
   -5.4689   -0.2552   -0.0019 H   0  0  0  0  0  0  0  0  0  0  0  0
   -3.7592    1.4865   -0.0008 H   0  0  0  0  0  0  0  0  0  0  0  0
    3.4224    2.0850   -0.0007 H   0  0  0  0  0  0  0  0  0  0  0  0
   -0.1322   -2.6961    0.0026 H   0  0  0  0  0  0  0  0  0  0  0  0
    2.2538   -3.2523    0.0008 H   0  0  0  0  0  0  0  0  0  0  0  0
    4.8490   -2.7949   -0.0017 H   0  0  0  0  0  0  0  0  0  0  0  0
    5.3065   -0.2215   -0.0023 H   0  0  0  0  0  0  0  0  0  0  0  0
    1.7212    3.8128   -0.0001 H   0  0  0  0  0  0  0  0  0  0  0  0
   -0.6344    4.4812   -0.0008 H   0  0  0  0  0  0  0  0  0  0  0  0
   -2.4212    2.8026    0.0003 H   0  0  0  0  0  0  0  0  0  0  0  0
  1  2  2  0  0  0  0
  2  3  1  0  0  0  0
  3  4  2  0  0  0  0
  4  5  1  0  0  0  0
  5  6  2  0  0  0  0
  6  7  1  0  0  0  0
  7  8  1  0  0  0  0
  8  9  1  0  0  0  0
  9 10  2  0  0  0  0
 10 11  1  0  0  0  0
 11 12  1  0  0  0  0
  7 12  2  0  0  0  0
 12 13  1  0  0  0  0
 13 14  2  0  0  0  0
  1 14  1  0  0  0  0
  5 14  1  0  0  0  0
 11 15  2  0  0  0  0
 15 16  1  0  0  0  0
 16 17  2  0  0  0  0
 10 17  1  0  0  0  0
  8 18  2  0  0  0  0
 18 19  1  0  0  0  0
 19 20  2  0  0  0  0
  6 20  1  0  0  0  0
  1 21  1  0  0  0  0
  2 22  1  0  0  0  0
  3 23  1  0  0  0  0
  4 24  1  0  0  0  0
  9 25  1  0  0  0  0
 13 26  1  0  0  0  0
 15 27  1  0  0  0  0
 16 28  1  0  0  0  0
 17 29  1  0  0  0  0
 18 30  1  0  0  0  0
 19 31  1  0  0  0  0
 20 32  1  0  0  0  0
M  END
$$$$
