C26H16
APtclcactv01171906233D 0   0.00000     0.00000
 
 42 47  0  0  0  0  0  0  0  0999 V2000
    0.0782   -3.5057   -0.4366 C   0  0  0  0  0  0  0  0  0  0  0  0
   -1.1393   -2.8946   -0.0839 C   0  0  0  0  0  0  0  0  0  0  0  0
   -2.3400   -3.6178   -0.0746 C   0  0  0  0  0  0  0  0  0  0  0  0
   -3.4804   -3.0316    0.3862 C   0  0  0  0  0  0  0  0  0  0  0  0
   -3.4581   -1.7257    0.8727 C   0  0  0  0  0  0  0  0  0  0  0  0
   -2.3169   -0.9852    0.8211 C   0  0  0  0  0  0  0  0  0  0  0  0
   -1.1488   -1.5275    0.2841 C   0  0  0  0  0  0  0  0  0  0  0  0
    0.0563   -0.7344    0.0767 C   0  0  0  0  0  0  0  0  0  0  0  0
    0.0557    0.7219    0.0375 C   0  0  0  0  0  0  0  0  0  0  0  0
   -1.1414    1.5172   -0.2183 C   0  0  0  0  0  0  0  0  0  0  0  0
   -2.3030    0.9913   -0.7868 C   0  0  0  0  0  0  0  0  0  0  0  0
   -3.4280    1.7535   -0.8884 C   0  0  0  0  0  0  0  0  0  0  0  0
   -3.4377    3.0700   -0.4399 C   0  0  0  0  0  0  0  0  0  0  0  0
   -2.3008    3.6444    0.0443 C   0  0  0  0  0  0  0  0  0  0  0  0
   -1.1098    2.9042    0.0848 C   0  0  0  0  0  0  0  0  0  0  0  0
    0.1220    3.5246    0.3644 C   0  0  0  0  0  0  0  0  0  0  0  0
    1.2707    2.8113    0.3730 C   0  0  0  0  0  0  0  0  0  0  0  0
    1.2719    1.4173    0.1945 C   0  0  0  0  0  0  0  0  0  0  0  0
    2.5450    0.6884    0.0968 C   0  0  0  0  0  0  0  0  0  0  0  0
    2.5425   -0.7122   -0.0858 C   0  0  0  0  0  0  0  0  0  0  0  0
    1.2622   -1.4310   -0.1246 C   0  0  0  0  0  0  0  0  0  0  0  0
    1.2378   -2.8077   -0.4193 C   0  0  0  0  0  0  0  0  0  0  0  0
    3.7568   -1.3967   -0.1918 C   0  0  0  0  0  0  0  0  0  0  0  0
    4.9348   -0.7099   -0.1118 C   0  0  0  0  0  0  0  0  0  0  0  0
    4.9400    0.6657    0.0805 C   0  0  0  0  0  0  0  0  0  0  0  0
    3.7669    1.3634    0.1809 C   0  0  0  0  0  0  0  0  0  0  0  0
    0.0924   -4.5489   -0.7218 H   0  0  0  0  0  0  0  0  0  0  0  0
   -2.3681   -4.6448   -0.4216 H   0  0  0  0  0  0  0  0  0  0  0  0
   -4.4141   -3.5708    0.3564 H   0  0  0  0  0  0  0  0  0  0  0  0
   -4.3537   -1.2998    1.3041 H   0  0  0  0  0  0  0  0  0  0  0  0
   -2.3089    0.0166    1.2313 H   0  0  0  0  0  0  0  0  0  0  0  0
   -2.3099   -0.0121   -1.1838 H   0  0  0  0  0  0  0  0  0  0  0  0
   -4.3247    1.3352   -1.3250 H   0  0  0  0  0  0  0  0  0  0  0  0
   -4.3517    3.6389   -0.4748 H   0  0  0  0  0  0  0  0  0  0  0  0
   -2.3177    4.6673    0.3972 H   0  0  0  0  0  0  0  0  0  0  0  0
    0.1545    4.5831    0.5811 H   0  0  0  0  0  0  0  0  0  0  0  0
    2.2020    3.3307    0.5276 H   0  0  0  0  0  0  0  0  0  0  0  0
    2.1608   -3.3225   -0.6468 H   0  0  0  0  0  0  0  0  0  0  0  0
    3.7717   -2.4680   -0.3229 H   0  0  0  0  0  0  0  0  0  0  0  0
    5.8702   -1.2437   -0.2051 H   0  0  0  0  0  0  0  0  0  0  0  0
    5.8808    1.1924    0.1485 H   0  0  0  0  0  0  0  0  0  0  0  0
    3.7941    2.4304    0.3305 H   0  0  0  0  0  0  0  0  0  0  0  0
  1  2  2  0  0  0  0
  2  3  1  0  0  0  0
  3  4  2  0  0  0  0
  4  5  1  0  0  0  0
  5  6  2  0  0  0  0
  6  7  1  0  0  0  0
  2  7  1  0  0  0  0
  7  8  2  0  0  0  0
  8  9  1  0  0  0  0
  9 10  2  0  0  0  0
 10 11  1  0  0  0  0
 11 12  2  0  0  0  0
 12 13  1  0  0  0  0
 13 14  2  0  0  0  0
 14 15  1  0  0  0  0
 10 15  1  0  0  0  0
 15 16  2  0  0  0  0
 16 17  1  0  0  0  0
 17 18  2  0  0  0  0
  9 18  1  0  0  0  0
 18 19  1  0  0  0  0
 19 20  2  0  0  0  0
 20 21  1  0  0  0  0
  8 21  1  0  0  0  0
 21 22  2  0  0  0  0
  1 22  1  0  0  0  0
 20 23  1  0  0  0  0
 23 24  2  0  0  0  0
 24 25  1  0  0  0  0
 25 26  2  0  0  0  0
 19 26  1  0  0  0  0
  1 27  1  0  0  0  0
  3 28  1  0  0  0  0
  4 29  1  0  0  0  0
  5 30  1  0  0  0  0
  6 31  1  0  0  0  0
 11 32  1  0  0  0  0
 12 33  1  0  0  0  0
 13 34  1  0  0  0  0
 14 35  1  0  0  0  0
 16 36  1  0  0  0  0
 17 37  1  0  0  0  0
 22 38  1  0  0  0  0
 23 39  1  0  0  0  0
 24 40  1  0  0  0  0
 25 41  1  0  0  0  0
 26 42  1  0  0  0  0
M  END
$$$$
