C24H12
APtclcactv01171906243D 0   0.00000     0.00000
 
 36 42  0  0  0  0  0  0  0  0999 V2000
    0.4694   -3.7398    0.0036 C   0  0  0  0  0  0  0  0  0  0  0  0
   -0.8567   -3.4097    0.0020 C   0  0  0  0  0  0  0  0  0  0  0  0
   -1.0346   -2.0103    0.0003 C   0  0  0  0  0  0  0  0  0  0  0  0
    0.2440   -1.4680    0.0008 C   0  0  0  0  0  0  0  0  0  0  0  0
    0.5407   -0.1135    0.0005 C   0  0  0  0  0  0  0  0  0  0  0  0
    1.8848    0.2861   -0.0002 C   0  0  0  0  0  0  0  0  0  0  0  0
    2.8949   -0.7100    0.0007 C   0  0  0  0  0  0  0  0  0  0  0  0
    4.2288   -0.2774   -0.0014 C   0  0  0  0  0  0  0  0  0  0  0  0
    4.5218    1.0749   -0.0045 C   0  0  0  0  0  0  0  0  0  0  0  0
    3.5417    2.0443   -0.0050 C   0  0  0  0  0  0  0  0  0  0  0  0
    2.1855    1.6693   -0.0022 C   0  0  0  0  0  0  0  0  0  0  0  0
    1.1508    2.6244    0.0001 C   0  0  0  0  0  0  0  0  0  0  0  0
   -0.1855    2.2404    0.0019 C   0  0  0  0  0  0  0  0  0  0  0  0
   -0.5117    0.8153    0.0005 C   0  0  0  0  0  0  0  0  0  0  0  0
   -1.8396    0.3518   -0.0004 C   0  0  0  0  0  0  0  0  0  0  0  0
   -2.8837    1.3078    0.0014 C   0  0  0  0  0  0  0  0  0  0  0  0
   -4.2053    0.8562   -0.0017 C   0  0  0  0  0  0  0  0  0  0  0  0
   -4.4800   -0.4984   -0.0064 C   0  0  0  0  0  0  0  0  0  0  0  0
   -3.4710   -1.4413   -0.0067 C   0  0  0  0  0  0  0  0  0  0  0  0
   -2.1360   -1.0394   -0.0009 C   0  0  0  0  0  0  0  0  0  0  0  0
   -2.5694    2.7336    0.0054 C   0  0  0  0  0  0  0  0  0  0  0  0
   -1.2957    3.1907    0.0064 C   0  0  0  0  0  0  0  0  0  0  0  0
    2.5765   -2.0928    0.0032 C   0  0  0  0  0  0  0  0  0  0  0  0
    1.2596   -2.5115    0.0025 C   0  0  0  0  0  0  0  0  0  0  0  0
    0.8676   -4.7437    0.0094 H   0  0  0  0  0  0  0  0  0  0  0  0
   -1.6639   -4.1272    0.0014 H   0  0  0  0  0  0  0  0  0  0  0  0
    5.0298   -1.0018   -0.0003 H   0  0  0  0  0  0  0  0  0  0  0  0
    5.5571    1.3824   -0.0062 H   0  0  0  0  0  0  0  0  0  0  0  0
    3.8142    3.0894   -0.0080 H   0  0  0  0  0  0  0  0  0  0  0  0
    1.4000    3.6752    0.0007 H   0  0  0  0  0  0  0  0  0  0  0  0
   -5.0167    1.5690   -0.0002 H   0  0  0  0  0  0  0  0  0  0  0  0
   -5.5086   -0.8275   -0.0095 H   0  0  0  0  0  0  0  0  0  0  0  0
   -3.7168   -2.4929   -0.0095 H   0  0  0  0  0  0  0  0  0  0  0  0
   -3.3802    3.4470    0.0086 H   0  0  0  0  0  0  0  0  0  0  0  0
   -1.1005    4.2529    0.0094 H   0  0  0  0  0  0  0  0  0  0  0  0
    3.3706   -2.8248    0.0059 H   0  0  0  0  0  0  0  0  0  0  0  0
  1  2  2  0  0  0  0
  2  3  1  0  0  0  0
  3  4  2  0  0  0  0
  4  5  1  0  0  0  0
  5  6  1  0  0  0  0
  6  7  1  0  0  0  0
  7  8  2  0  0  0  0
  8  9  1  0  0  0  0
  9 10  2  0  0  0  0
 10 11  1  0  0  0  0
  6 11  2  0  0  0  0
 11 12  1  0  0  0  0
 12 13  2  0  0  0  0
 13 14  1  0  0  0  0
  5 14  2  0  0  0  0
 14 15  1  0  0  0  0
 15 16  2  0  0  0  0
 16 17  1  0  0  0  0
 17 18  2  0  0  0  0
 18 19  1  0  0  0  0
 19 20  2  0  0  0  0
  3 20  1  0  0  0  0
 15 20  1  0  0  0  0
 16 21  1  0  0  0  0
 21 22  2  0  0  0  0
 13 22  1  0  0  0  0
  7 23  1  0  0  0  0
 23 24  2  0  0  0  0
  1 24  1  0  0  0  0
  4 24  1  0  0  0  0
  1 25  1  0  0  0  0
  2 26  1  0  0  0  0
  8 27  1  0  0  0  0
  9 28  1  0  0  0  0
 10 29  1  0  0  0  0
 12 30  1  0  0  0  0
 17 31  1  0  0  0  0
 18 32  1  0  0  0  0
 19 33  1  0  0  0  0
 21 34  1  0  0  0  0
 22 35  1  0  0  0  0
 23 36  1  0  0  0  0
M  END
$$$$
