C24H14
APtclcactv01171906213D 0   0.00000     0.00000
 
 38 43  0  0  0  0  0  0  0  0999 V2000
   -0.1973   -3.0597   -0.0015 C   0  0  0  0  0  0  0  0  0  0  0  0
   -1.5402   -3.2864   -0.0024 C   0  0  0  0  0  0  0  0  0  0  0  0
   -2.2348   -1.9976   -0.0009 C   0  0  0  0  0  0  0  0  0  0  0  0
   -3.5385   -1.5490   -0.0006 C   0  0  0  0  0  0  0  0  0  0  0  0
   -3.8242   -0.1619    0.0000 C   0  0  0  0  0  0  0  0  0  0  0  0
   -2.8008    0.8188    0.0009 C   0  0  0  0  0  0  0  0  0  0  0  0
   -1.3959    0.3811    0.0013 C   0  0  0  0  0  0  0  0  0  0  0  0
   -0.3102    1.2386    0.0020 C   0  0  0  0  0  0  0  0  0  0  0  0
    0.9999    0.7100    0.0012 C   0  0  0  0  0  0  0  0  0  0  0  0
    2.0954    1.5803   -0.0005 C   0  0  0  0  0  0  0  0  0  0  0  0
    3.3892    1.0664   -0.0010 C   0  0  0  0  0  0  0  0  0  0  0  0
    4.5134    1.9209   -0.0034 C   0  0  0  0  0  0  0  0  0  0  0  0
    5.7611    1.3863   -0.0026 C   0  0  0  0  0  0  0  0  0  0  0  0
    5.9683    0.0065    0.0008 C   0  0  0  0  0  0  0  0  0  0  0  0
    4.9318   -0.8708    0.0024 C   0  0  0  0  0  0  0  0  0  0  0  0
    3.6081   -0.3839    0.0015 C   0  0  0  0  0  0  0  0  0  0  0  0
    2.5185   -1.2552    0.0011 C   0  0  0  0  0  0  0  0  0  0  0  0
    1.2286   -0.7441    0.0016 C   0  0  0  0  0  0  0  0  0  0  0  0
    0.0624   -1.6279    0.0004 C   0  0  0  0  0  0  0  0  0  0  0  0
   -1.1748   -0.9993    0.0005 C   0  0  0  0  0  0  0  0  0  0  0  0
   -3.1333    2.1714    0.0008 C   0  0  0  0  0  0  0  0  0  0  0  0
   -4.4578    2.5507   -0.0002 C   0  0  0  0  0  0  0  0  0  0  0  0
   -5.4639    1.5924   -0.0004 C   0  0  0  0  0  0  0  0  0  0  0  0
   -5.1655    0.2626   -0.0006 C   0  0  0  0  0  0  0  0  0  0  0  0
    0.5617   -3.8280    0.0018 H   0  0  0  0  0  0  0  0  0  0  0  0
   -2.0145   -4.2567   -0.0041 H   0  0  0  0  0  0  0  0  0  0  0  0
   -4.3496   -2.2622   -0.0013 H   0  0  0  0  0  0  0  0  0  0  0  0
   -0.4636    2.3077    0.0029 H   0  0  0  0  0  0  0  0  0  0  0  0
    1.9377    2.6487   -0.0018 H   0  0  0  0  0  0  0  0  0  0  0  0
    4.3814    2.9928   -0.0062 H   0  0  0  0  0  0  0  0  0  0  0  0
    6.6159    2.0463   -0.0049 H   0  0  0  0  0  0  0  0  0  0  0  0
    6.9792   -0.3736    0.0016 H   0  0  0  0  0  0  0  0  0  0  0  0
    5.1198   -1.9343    0.0044 H   0  0  0  0  0  0  0  0  0  0  0  0
    2.6784   -2.3233    0.0014 H   0  0  0  0  0  0  0  0  0  0  0  0
   -2.3554    2.9205    0.0019 H   0  0  0  0  0  0  0  0  0  0  0  0
   -4.7157    3.5995   -0.0005 H   0  0  0  0  0  0  0  0  0  0  0  0
   -6.4975    1.9058   -0.0008 H   0  0  0  0  0  0  0  0  0  0  0  0
   -5.9613   -0.4676   -0.0009 H   0  0  0  0  0  0  0  0  0  0  0  0
  1  2  2  0  0  0  0
  2  3  1  0  0  0  0
  3  4  1  0  0  0  0
  4  5  2  0  0  0  0
  5  6  1  0  0  0  0
  6  7  2  0  0  0  0
  7  8  1  0  0  0  0
  8  9  2  0  0  0  0
  9 10  1  0  0  0  0
 10 11  2  0  0  0  0
 11 12  1  0  0  0  0
 12 13  2  0  0  0  0
 13 14  1  0  0  0  0
 14 15  2  0  0  0  0
 15 16  1  0  0  0  0
 11 16  1  0  0  0  0
 16 17  2  0  0  0  0
 17 18  1  0  0  0  0
  9 18  1  0  0  0  0
 18 19  2  0  0  0  0
  1 19  1  0  0  0  0
 19 20  1  0  0  0  0
  3 20  2  0  0  0  0
  7 20  1  0  0  0  0
  6 21  1  0  0  0  0
 21 22  2  0  0  0  0
 22 23  1  0  0  0  0
 23 24  2  0  0  0  0
  5 24  1  0  0  0  0
  1 25  1  0  0  0  0
  2 26  1  0  0  0  0
  4 27  1  0  0  0  0
  8 28  1  0  0  0  0
 10 29  1  0  0  0  0
 12 30  1  0  0  0  0
 13 31  1  0  0  0  0
 14 32  1  0  0  0  0
 15 33  1  0  0  0  0
 17 34  1  0  0  0  0
 21 35  1  0  0  0  0
 22 36  1  0  0  0  0
 23 37  1  0  0  0  0
 24 38  1  0  0  0  0
M  END
$$$$
