C24H14
APtclcactv01171906223D 0   0.00000     0.00000
 
 38 43  0  0  0  0  0  0  0  0999 V2000
   -4.2808    0.8698   -0.1278 C   0  0  0  0  0  0  0  0  0  0  0  0
   -4.4455   -0.4794   -0.2342 C   0  0  0  0  0  0  0  0  0  0  0  0
   -3.3554   -1.3407   -0.2015 C   0  0  0  0  0  0  0  0  0  0  0  0
   -2.0680   -0.8415   -0.0751 C   0  0  0  0  0  0  0  0  0  0  0  0
   -0.9009   -1.7396   -0.0217 C   0  0  0  0  0  0  0  0  0  0  0  0
   -1.0570   -3.1145   -0.0210 C   0  0  0  0  0  0  0  0  0  0  0  0
    0.0402   -3.9647    0.0438 C   0  0  0  0  0  0  0  0  0  0  0  0
    1.3126   -3.4874    0.1078 C   0  0  0  0  0  0  0  0  0  0  0  0
    1.5462   -2.0965    0.0952 C   0  0  0  0  0  0  0  0  0  0  0  0
    2.8436   -1.5873    0.1678 C   0  0  0  0  0  0  0  0  0  0  0  0
    3.0498   -0.2119    0.0708 C   0  0  0  0  0  0  0  0  0  0  0  0
    1.9134    0.6947   -0.1295 C   0  0  0  0  0  0  0  0  0  0  0  0
    0.5991    0.2075    0.0019 C   0  0  0  0  0  0  0  0  0  0  0  0
   -0.5660    1.0959    0.1220 C   0  0  0  0  0  0  0  0  0  0  0  0
   -0.4357    2.4571    0.3609 C   0  0  0  0  0  0  0  0  0  0  0  0
   -1.5456    3.2910    0.3702 C   0  0  0  0  0  0  0  0  0  0  0  0
   -2.8037    2.7959    0.1907 C   0  0  0  0  0  0  0  0  0  0  0  0
   -2.9927    1.4127    0.0257 C   0  0  0  0  0  0  0  0  0  0  0  0
   -1.8703    0.5536    0.0191 C   0  0  0  0  0  0  0  0  0  0  0  0
    0.4025   -1.1862    0.0256 C   0  0  0  0  0  0  0  0  0  0  0  0
    2.1945    2.0247   -0.4817 C   0  0  0  0  0  0  0  0  0  0  0  0
    3.4712    2.4902   -0.4136 C   0  0  0  0  0  0  0  0  0  0  0  0
    4.5342    1.6600   -0.0638 C   0  0  0  0  0  0  0  0  0  0  0  0
    4.3458    0.3360    0.1753 C   0  0  0  0  0  0  0  0  0  0  0  0
   -5.1404    1.5227   -0.1569 H   0  0  0  0  0  0  0  0  0  0  0  0
   -5.4397   -0.8865   -0.3423 H   0  0  0  0  0  0  0  0  0  0  0  0
   -3.5187   -2.4056   -0.2738 H   0  0  0  0  0  0  0  0  0  0  0  0
   -2.0482   -3.5406   -0.0712 H   0  0  0  0  0  0  0  0  0  0  0  0
   -0.1218   -5.0323    0.0416 H   0  0  0  0  0  0  0  0  0  0  0  0
    2.1446   -4.1738    0.1649 H   0  0  0  0  0  0  0  0  0  0  0  0
    3.6817   -2.2553    0.2982 H   0  0  0  0  0  0  0  0  0  0  0  0
    0.5291    2.8823    0.5940 H   0  0  0  0  0  0  0  0  0  0  0  0
   -1.4084    4.3523    0.5161 H   0  0  0  0  0  0  0  0  0  0  0  0
   -3.6515    3.4634    0.1734 H   0  0  0  0  0  0  0  0  0  0  0  0
    1.4162    2.6730   -0.8549 H   0  0  0  0  0  0  0  0  0  0  0  0
    3.6642    3.5300   -0.6317 H   0  0  0  0  0  0  0  0  0  0  0  0
    5.5262    2.0768    0.0194 H   0  0  0  0  0  0  0  0  0  0  0  0
    5.1821   -0.2921    0.4445 H   0  0  0  0  0  0  0  0  0  0  0  0
  1  2  2  0  0  0  0
  2  3  1  0  0  0  0
  3  4  2  0  0  0  0
  4  5  1  0  0  0  0
  5  6  1  0  0  0  0
  6  7  2  0  0  0  0
  7  8  1  0  0  0  0
  8  9  2  0  0  0  0
  9 10  1  0  0  0  0
 10 11  2  0  0  0  0
 11 12  1  0  0  0  0
 12 13  2  0  0  0  0
 13 14  1  0  0  0  0
 14 15  1  0  0  0  0
 15 16  2  0  0  0  0
 16 17  1  0  0  0  0
 17 18  2  0  0  0  0
  1 18  1  0  0  0  0
 18 19  1  0  0  0  0
  4 19  1  0  0  0  0
 14 19  2  0  0  0  0
 13 20  1  0  0  0  0
  9 20  1  0  0  0  0
  5 20  2  0  0  0  0
 12 21  1  0  0  0  0
 21 22  2  0  0  0  0
 22 23  1  0  0  0  0
 23 24  2  0  0  0  0
 11 24  1  0  0  0  0
  1 25  1  0  0  0  0
  2 26  1  0  0  0  0
  3 27  1  0  0  0  0
  6 28  1  0  0  0  0
  7 29  1  0  0  0  0
  8 30  1  0  0  0  0
 10 31  1  0  0  0  0
 15 32  1  0  0  0  0
 16 33  1  0  0  0  0
 17 34  1  0  0  0  0
 21 35  1  0  0  0  0
 22 36  1  0  0  0  0
 23 37  1  0  0  0  0
 24 38  1  0  0  0  0
M  END
$$$$
