C30H16
APtclcactv01171906233D 0   0.00000     0.00000
 
 46 53  0  0  0  0  0  0  0  0999 V2000
   -3.9251   -2.7015   -0.0006 C   0  0  0  0  0  0  0  0  0  0  0  0
   -4.9669   -1.8381   -0.0004 C   0  0  0  0  0  0  0  0  0  0  0  0
   -4.7560   -0.4383    0.0003 C   0  0  0  0  0  0  0  0  0  0  0  0
   -5.8263    0.4618   -0.0000 C   0  0  0  0  0  0  0  0  0  0  0  0
   -5.5884    1.8225   -0.0002 C   0  0  0  0  0  0  0  0  0  0  0  0
   -4.3044    2.3299   -0.0001 C   0  0  0  0  0  0  0  0  0  0  0  0
   -3.2039    1.4627    0.0003 C   0  0  0  0  0  0  0  0  0  0  0  0
   -1.8836    1.9654   -0.0005 C   0  0  0  0  0  0  0  0  0  0  0  0
   -0.8071    1.1050   -0.0006 C   0  0  0  0  0  0  0  0  0  0  0  0
    0.5772    1.6161   -0.0009 C   0  0  0  0  0  0  0  0  0  0  0  0
    1.6548    0.7080   -0.0004 C   0  0  0  0  0  0  0  0  0  0  0  0
    2.9762    1.1996   -0.0001 C   0  0  0  0  0  0  0  0  0  0  0  0
    4.0888    0.2430    0.0004 C   0  0  0  0  0  0  0  0  0  0  0  0
    5.4141    0.6842   -0.0003 C   0  0  0  0  0  0  0  0  0  0  0  0
    6.4332   -0.2251   -0.0008 C   0  0  0  0  0  0  0  0  0  0  0  0
    6.1683   -1.5898   -0.0006 C   0  0  0  0  0  0  0  0  0  0  0  0
    4.8864   -2.0530    0.0001 C   0  0  0  0  0  0  0  0  0  0  0  0
    3.8142   -1.1439    0.0005 C   0  0  0  0  0  0  0  0  0  0  0  0
    2.4846   -1.6117    0.0012 C   0  0  0  0  0  0  0  0  0  0  0  0
    1.4205   -0.7375   -0.0007 C   0  0  0  0  0  0  0  0  0  0  0  0
    0.0364   -1.2498    0.0000 C   0  0  0  0  0  0  0  0  0  0  0  0
   -1.0351   -0.3417    0.0001 C   0  0  0  0  0  0  0  0  0  0  0  0
   -2.3554   -0.8334    0.0009 C   0  0  0  0  0  0  0  0  0  0  0  0
   -3.4361    0.0675    0.0009 C   0  0  0  0  0  0  0  0  0  0  0  0
   -2.5926   -2.2272   -0.0000 C   0  0  0  0  0  0  0  0  0  0  0  0
   -1.5000   -3.1038   -0.0018 C   0  0  0  0  0  0  0  0  0  0  0  0
   -0.2211   -2.6231    0.0025 C   0  0  0  0  0  0  0  0  0  0  0  0
    3.2013    2.5776    0.0006 C   0  0  0  0  0  0  0  0  0  0  0  0
    2.1352    3.4516    0.0016 C   0  0  0  0  0  0  0  0  0  0  0  0
    0.8317    2.9821   -0.0011 C   0  0  0  0  0  0  0  0  0  0  0  0
   -4.1132   -3.7650    0.0034 H   0  0  0  0  0  0  0  0  0  0  0  0
   -5.9759   -2.2232   -0.0013 H   0  0  0  0  0  0  0  0  0  0  0  0
   -6.8411    0.0923   -0.0005 H   0  0  0  0  0  0  0  0  0  0  0  0
   -6.4256    2.5048   -0.0008 H   0  0  0  0  0  0  0  0  0  0  0  0
   -4.1478    3.3985   -0.0006 H   0  0  0  0  0  0  0  0  0  0  0  0
   -1.7166    3.0324   -0.0014 H   0  0  0  0  0  0  0  0  0  0  0  0
    5.6325    1.7419   -0.0008 H   0  0  0  0  0  0  0  0  0  0  0  0
    7.4566    0.1201   -0.0017 H   0  0  0  0  0  0  0  0  0  0  0  0
    6.9888   -2.2920   -0.0013 H   0  0  0  0  0  0  0  0  0  0  0  0
    4.6949   -3.1159   -0.0002 H   0  0  0  0  0  0  0  0  0  0  0  0
    2.2969   -2.6752    0.0009 H   0  0  0  0  0  0  0  0  0  0  0  0
   -1.6702   -4.1703   -0.0022 H   0  0  0  0  0  0  0  0  0  0  0  0
    0.6061   -3.3175    0.0010 H   0  0  0  0  0  0  0  0  0  0  0  0
    4.2116    2.9592    0.0008 H   0  0  0  0  0  0  0  0  0  0  0  0
    2.3184    4.5159    0.0029 H   0  0  0  0  0  0  0  0  0  0  0  0
    0.0089    3.6816   -0.0003 H   0  0  0  0  0  0  0  0  0  0  0  0
  1  2  2  0  0  0  0
  2  3  1  0  0  0  0
  3  4  1  0  0  0  0
  4  5  2  0  0  0  0
  5  6  1  0  0  0  0
  6  7  2  0  0  0  0
  7  8  1  0  0  0  0
  8  9  2  0  0  0  0
  9 10  1  0  0  0  0
 10 11  2  0  0  0  0
 11 12  1  0  0  0  0
 12 13  1  0  0  0  0
 13 14  1  0  0  0  0
 14 15  2  0  0  0  0
 15 16  1  0  0  0  0
 16 17  2  0  0  0  0
 17 18  1  0  0  0  0
 13 18  2  0  0  0  0
 18 19  1  0  0  0  0
 19 20  2  0  0  0  0
 11 20  1  0  0  0  0
 20 21  1  0  0  0  0
 21 22  2  0  0  0  0
  9 22  1  0  0  0  0
 22 23  1  0  0  0  0
 23 24  1  0  0  0  0
  3 24  2  0  0  0  0
  7 24  1  0  0  0  0
 23 25  2  0  0  0  0
  1 25  1  0  0  0  0
 25 26  1  0  0  0  0
 26 27  2  0  0  0  0
 21 27  1  0  0  0  0
 12 28  2  0  0  0  0
 28 29  1  0  0  0  0
 29 30  2  0  0  0  0
 10 30  1  0  0  0  0
  1 31  1  0  0  0  0
  2 32  1  0  0  0  0
  4 33  1  0  0  0  0
  5 34  1  0  0  0  0
  6 35  1  0  0  0  0
  8 36  1  0  0  0  0
 14 37  1  0  0  0  0
 15 38  1  0  0  0  0
 16 39  1  0  0  0  0
 17 40  1  0  0  0  0
 19 41  1  0  0  0  0
 26 42  1  0  0  0  0
 27 43  1  0  0  0  0
 28 44  1  0  0  0  0
 29 45  1  0  0  0  0
 30 46  1  0  0  0  0
M  END
$$$$
