C28H16
APtclcactv01171906223D 0   0.00000     0.00000
 
 44 50  0  0  0  0  0  0  0  0999 V2000
    4.8838   -2.3859   -0.0016 C   0  0  0  0  0  0  0  0  0  0  0  0
    3.6325   -1.7565   -0.0002 C   0  0  0  0  0  0  0  0  0  0  0  0
    2.4330   -2.5019   -0.0001 C   0  0  0  0  0  0  0  0  0  0  0  0
    1.2293   -1.8754    0.0003 C   0  0  0  0  0  0  0  0  0  0  0  0
    1.1471   -0.4713    0.0007 C   0  0  0  0  0  0  0  0  0  0  0  0
    2.3230    0.2998    0.0010 C   0  0  0  0  0  0  0  0  0  0  0  0
    3.5748   -0.3436    0.0005 C   0  0  0  0  0  0  0  0  0  0  0  0
    4.7652    0.4173    0.0009 C   0  0  0  0  0  0  0  0  0  0  0  0
    4.7006    1.8768    0.0012 C   0  0  0  0  0  0  0  0  0  0  0  0
    3.5147    2.5211    0.0012 C   0  0  0  0  0  0  0  0  0  0  0  0
    2.2618    1.7626    0.0008 C   0  0  0  0  0  0  0  0  0  0  0  0
    1.0394    2.4132    0.0003 C   0  0  0  0  0  0  0  0  0  0  0  0
   -0.1644    1.6874   -0.0007 C   0  0  0  0  0  0  0  0  0  0  0  0
   -1.3974    2.3510   -0.0007 C   0  0  0  0  0  0  0  0  0  0  0  0
   -2.5804    1.6181   -0.0011 C   0  0  0  0  0  0  0  0  0  0  0  0
   -3.8672    2.3140   -0.0011 C   0  0  0  0  0  0  0  0  0  0  0  0
   -5.0268    1.6290   -0.0006 C   0  0  0  0  0  0  0  0  0  0  0  0
   -5.0360    0.1690   -0.0005 C   0  0  0  0  0  0  0  0  0  0  0  0
   -3.8182   -0.5427   -0.0011 C   0  0  0  0  0  0  0  0  0  0  0  0
   -2.5489    0.1992   -0.0011 C   0  0  0  0  0  0  0  0  0  0  0  0
   -1.3406   -0.4857   -0.0012 C   0  0  0  0  0  0  0  0  0  0  0  0
   -0.1420    0.2214    0.0003 C   0  0  0  0  0  0  0  0  0  0  0  0
   -3.8328   -1.9392   -0.0000 C   0  0  0  0  0  0  0  0  0  0  0  0
   -5.0364   -2.6069    0.0015 C   0  0  0  0  0  0  0  0  0  0  0  0
   -6.2344   -1.9037    0.0020 C   0  0  0  0  0  0  0  0  0  0  0  0
   -6.2450   -0.5389    0.0005 C   0  0  0  0  0  0  0  0  0  0  0  0
    5.9929   -0.2478    0.0004 C   0  0  0  0  0  0  0  0  0  0  0  0
    6.0372   -1.6305   -0.0022 C   0  0  0  0  0  0  0  0  0  0  0  0
    4.9453   -3.4642    0.0024 H   0  0  0  0  0  0  0  0  0  0  0  0
    2.4740   -3.5812   -0.0008 H   0  0  0  0  0  0  0  0  0  0  0  0
    0.3228   -2.4624   -0.0000 H   0  0  0  0  0  0  0  0  0  0  0  0
    5.6164    2.4492    0.0018 H   0  0  0  0  0  0  0  0  0  0  0  0
    3.4895    3.6008    0.0018 H   0  0  0  0  0  0  0  0  0  0  0  0
    1.0105    3.4928    0.0011 H   0  0  0  0  0  0  0  0  0  0  0  0
   -1.4303    3.4305   -0.0000 H   0  0  0  0  0  0  0  0  0  0  0  0
   -3.8876    3.3938   -0.0011 H   0  0  0  0  0  0  0  0  0  0  0  0
   -5.9631    2.1672    0.0001 H   0  0  0  0  0  0  0  0  0  0  0  0
   -1.3313   -1.5657   -0.0015 H   0  0  0  0  0  0  0  0  0  0  0  0
   -2.9051   -2.4920   -0.0008 H   0  0  0  0  0  0  0  0  0  0  0  0
   -5.0495   -3.6868    0.0020 H   0  0  0  0  0  0  0  0  0  0  0  0
   -7.1696   -2.4439    0.0032 H   0  0  0  0  0  0  0  0  0  0  0  0
   -7.1840   -0.0053    0.0010 H   0  0  0  0  0  0  0  0  0  0  0  0
    6.9118    0.3196    0.0007 H   0  0  0  0  0  0  0  0  0  0  0  0
    6.9954   -2.1287   -0.0026 H   0  0  0  0  0  0  0  0  0  0  0  0
  1  2  2  0  0  0  0
  2  3  1  0  0  0  0
  3  4  2  0  0  0  0
  4  5  1  0  0  0  0
  5  6  1  0  0  0  0
  6  7  1  0  0  0  0
  2  7  1  0  0  0  0
  7  8  2  0  0  0  0
  8  9  1  0  0  0  0
  9 10  2  0  0  0  0
 10 11  1  0  0  0  0
  6 11  2  0  0  0  0
 11 12  1  0  0  0  0
 12 13  2  0  0  0  0
 13 14  1  0  0  0  0
 14 15  2  0  0  0  0
 15 16  1  0  0  0  0
 16 17  2  0  0  0  0
 17 18  1  0  0  0  0
 18 19  2  0  0  0  0
 19 20  1  0  0  0  0
 15 20  1  0  0  0  0
 20 21  2  0  0  0  0
 21 22  1  0  0  0  0
  5 22  2  0  0  0  0
 13 22  1  0  0  0  0
 19 23  1  0  0  0  0
 23 24  2  0  0  0  0
 24 25  1  0  0  0  0
 25 26  2  0  0  0  0
 18 26  1  0  0  0  0
  8 27  1  0  0  0  0
 27 28  2  0  0  0  0
  1 28  1  0  0  0  0
  1 29  1  0  0  0  0
  3 30  1  0  0  0  0
  4 31  1  0  0  0  0
  9 32  1  0  0  0  0
 10 33  1  0  0  0  0
 12 34  1  0  0  0  0
 14 35  1  0  0  0  0
 16 36  1  0  0  0  0
 17 37  1  0  0  0  0
 21 38  1  0  0  0  0
 23 39  1  0  0  0  0
 24 40  1  0  0  0  0
 25 41  1  0  0  0  0
 26 42  1  0  0  0  0
 27 43  1  0  0  0  0
 28 44  1  0  0  0  0
M  END
$$$$
