C36H16
APtclcactv01171906243D 0   0.00000     0.00000
 
 52 62  0  0  0  0  0  0  0  0999 V2000
   -1.6853   -3.5391   -0.0007 C   0  0  0  0  0  0  0  0  0  0  0  0
   -2.8585   -2.8543   -0.0001 C   0  0  0  0  0  0  0  0  0  0  0  0
   -2.8908   -1.4486    0.0005 C   0  0  0  0  0  0  0  0  0  0  0  0
   -4.1573   -0.7079    0.0006 C   0  0  0  0  0  0  0  0  0  0  0  0
   -4.1566    0.7051    0.0008 C   0  0  0  0  0  0  0  0  0  0  0  0
   -2.8897    1.4449    0.0009 C   0  0  0  0  0  0  0  0  0  0  0  0
   -2.8599    2.8506    0.0001 C   0  0  0  0  0  0  0  0  0  0  0  0
   -1.6875    3.5363   -0.0002 C   0  0  0  0  0  0  0  0  0  0  0  0
   -0.4505    2.8537   -0.0003 C   0  0  0  0  0  0  0  0  0  0  0  0
    0.7699    3.5399   -0.0006 C   0  0  0  0  0  0  0  0  0  0  0  0
    1.9794    2.8442   -0.0002 C   0  0  0  0  0  0  0  0  0  0  0  0
    3.2272    3.5157    0.0000 C   0  0  0  0  0  0  0  0  0  0  0  0
    4.3912    2.8243    0.0004 C   0  0  0  0  0  0  0  0  0  0  0  0
    4.4112    1.4107    0.0006 C   0  0  0  0  0  0  0  0  0  0  0  0
    5.6125    0.6843    0.0001 C   0  0  0  0  0  0  0  0  0  0  0  0
    5.6133   -0.6785   -0.0002 C   0  0  0  0  0  0  0  0  0  0  0  0
    4.4132   -1.4069   -0.0000 C   0  0  0  0  0  0  0  0  0  0  0  0
    4.3948   -2.8204    0.0001 C   0  0  0  0  0  0  0  0  0  0  0  0
    3.2317   -3.5135    0.0003 C   0  0  0  0  0  0  0  0  0  0  0  0
    1.9827   -2.8444    0.0010 C   0  0  0  0  0  0  0  0  0  0  0  0
    0.7735   -3.5411    0.0019 C   0  0  0  0  0  0  0  0  0  0  0  0
   -0.4481   -2.8570   -0.0007 C   0  0  0  0  0  0  0  0  0  0  0  0
   -0.4592   -1.4393   -0.0042 C   0  0  0  0  0  0  0  0  0  0  0  0
   -1.6805   -0.7327    0.0006 C   0  0  0  0  0  0  0  0  0  0  0  0
   -1.6805    0.7284    0.0013 C   0  0  0  0  0  0  0  0  0  0  0  0
   -0.4599    1.4362    0.0005 C   0  0  0  0  0  0  0  0  0  0  0  0
    0.7540    0.7287   -0.0014 C   0  0  0  0  0  0  0  0  0  0  0  0
    1.9737    1.4256    0.0005 C   0  0  0  0  0  0  0  0  0  0  0  0
    3.1864    0.7062    0.0009 C   0  0  0  0  0  0  0  0  0  0  0  0
    3.1870   -0.7045    0.0006 C   0  0  0  0  0  0  0  0  0  0  0  0
    1.9753   -1.4258    0.0013 C   0  0  0  0  0  0  0  0  0  0  0  0
    0.7544   -0.7308   -0.0045 C   0  0  0  0  0  0  0  0  0  0  0  0
   -5.3756    1.3933    0.0004 C   0  0  0  0  0  0  0  0  0  0  0  0
   -6.5495    0.6982   -0.0001 C   0  0  0  0  0  0  0  0  0  0  0  0
   -6.5507   -0.6919   -0.0003 C   0  0  0  0  0  0  0  0  0  0  0  0
   -5.3791   -1.3912    0.0001 C   0  0  0  0  0  0  0  0  0  0  0  0
   -1.6985   -4.6190    0.0034 H   0  0  0  0  0  0  0  0  0  0  0  0
   -3.7888   -3.4028   -0.0005 H   0  0  0  0  0  0  0  0  0  0  0  0
   -3.7910    3.3979   -0.0005 H   0  0  0  0  0  0  0  0  0  0  0  0
   -1.7010    4.6163   -0.0008 H   0  0  0  0  0  0  0  0  0  0  0  0
    0.7752    4.6199   -0.0015 H   0  0  0  0  0  0  0  0  0  0  0  0
    3.2500    4.5954   -0.0005 H   0  0  0  0  0  0  0  0  0  0  0  0
    5.3260    3.3652    0.0002 H   0  0  0  0  0  0  0  0  0  0  0  0
    6.5531    1.2151   -0.0004 H   0  0  0  0  0  0  0  0  0  0  0  0
    6.5546   -1.2080   -0.0010 H   0  0  0  0  0  0  0  0  0  0  0  0
    5.3303   -3.3601   -0.0005 H   0  0  0  0  0  0  0  0  0  0  0  0
    3.2563   -4.5932   -0.0003 H   0  0  0  0  0  0  0  0  0  0  0  0
    0.7801   -4.6211    0.0013 H   0  0  0  0  0  0  0  0  0  0  0  0
   -5.3868    2.4733    0.0009 H   0  0  0  0  0  0  0  0  0  0  0  0
   -7.4876    1.2334   -0.0001 H   0  0  0  0  0  0  0  0  0  0  0  0
   -7.4902   -1.2247   -0.0003 H   0  0  0  0  0  0  0  0  0  0  0  0
   -5.3943   -2.4711   -0.0004 H   0  0  0  0  0  0  0  0  0  0  0  0
  1  2  2  0  0  0  0
  2  3  1  0  0  0  0
  3  4  1  0  0  0  0
  4  5  2  0  0  0  0
  5  6  1  0  0  0  0
  6  7  2  0  0  0  0
  7  8  1  0  0  0  0
  8  9  2  0  0  0  0
  9 10  1  0  0  0  0
 10 11  2  0  0  0  0
 11 12  1  0  0  0  0
 12 13  2  0  0  0  0
 13 14  1  0  0  0  0
 14 15  2  0  0  0  0
 15 16  1  0  0  0  0
 16 17  2  0  0  0  0
 17 18  1  0  0  0  0
 18 19  2  0  0  0  0
 19 20  1  0  0  0  0
 20 21  2  0  0  0  0
 21 22  1  0  0  0  0
  1 22  1  0  0  0  0
 22 23  2  0  0  0  0
 23 24  1  0  0  0  0
  3 24  2  0  0  0  0
 24 25  1  0  0  0  0
  6 25  1  0  0  0  0
 25 26  2  0  0  0  0
  9 26  1  0  0  0  0
 26 27  1  0  0  0  0
 27 28  2  0  0  0  0
 11 28  1  0  0  0  0
 28 29  1  0  0  0  0
 14 29  1  0  0  0  0
 29 30  2  0  0  0  0
 17 30  1  0  0  0  0
 30 31  1  0  0  0  0
 20 31  1  0  0  0  0
 31 32  2  0  0  0  0
 23 32  1  0  0  0  0
 27 32  1  0  0  0  0
  5 33  1  0  0  0  0
 33 34  2  0  0  0  0
 34 35  1  0  0  0  0
 35 36  2  0  0  0  0
  4 36  1  0  0  0  0
  1 37  1  0  0  0  0
  2 38  1  0  0  0  0
  7 39  1  0  0  0  0
  8 40  1  0  0  0  0
 10 41  1  0  0  0  0
 12 42  1  0  0  0  0
 13 43  1  0  0  0  0
 15 44  1  0  0  0  0
 16 45  1  0  0  0  0
 18 46  1  0  0  0  0
 19 47  1  0  0  0  0
 21 48  1  0  0  0  0
 33 49  1  0  0  0  0
 34 50  1  0  0  0  0
 35 51  1  0  0  0  0
 36 52  1  0  0  0  0
M  END
$$$$
