C30H18
APtclcactv01171906223D 0   0.00000     0.00000
 
 48 54  0  0  0  0  0  0  0  0999 V2000
    4.5167    2.4075    0.1123 C   0  0  0  0  0  0  0  0  0  0  0  0
    3.4653    1.4799    0.1641 C   0  0  0  0  0  0  0  0  0  0  0  0
    3.7201    0.1145    0.3982 C   0  0  0  0  0  0  0  0  0  0  0  0
    2.7176   -0.7906    0.4432 C   0  0  0  0  0  0  0  0  0  0  0  0
    1.3708   -0.4179    0.2832 C   0  0  0  0  0  0  0  0  0  0  0  0
    0.3323   -1.3914    0.1867 C   0  0  0  0  0  0  0  0  0  0  0  0
    0.5998   -2.8075   -0.0531 C   0  0  0  0  0  0  0  0  0  0  0  0
    1.8329   -3.2816   -0.5079 C   0  0  0  0  0  0  0  0  0  0  0  0
    2.0548   -4.6235   -0.6194 C   0  0  0  0  0  0  0  0  0  0  0  0
    1.0574   -5.5401   -0.3048 C   0  0  0  0  0  0  0  0  0  0  0  0
   -0.1786   -5.1137    0.0795 C   0  0  0  0  0  0  0  0  0  0  0  0
   -0.4507   -3.7390    0.1469 C   0  0  0  0  0  0  0  0  0  0  0  0
   -1.7626   -3.2778    0.3734 C   0  0  0  0  0  0  0  0  0  0  0  0
   -2.0440   -1.9575    0.4307 C   0  0  0  0  0  0  0  0  0  0  0  0
   -1.0469   -0.9769    0.2817 C   0  0  0  0  0  0  0  0  0  0  0  0
   -1.3719    0.4098    0.1867 C   0  0  0  0  0  0  0  0  0  0  0  0
   -2.7347    0.8853   -0.0386 C   0  0  0  0  0  0  0  0  0  0  0  0
   -3.0130    2.2632    0.1422 C   0  0  0  0  0  0  0  0  0  0  0  0
   -1.9566    3.1700    0.3588 C   0  0  0  0  0  0  0  0  0  0  0  0
   -0.6720    2.7534    0.4100 C   0  0  0  0  0  0  0  0  0  0  0  0
   -0.3234    1.3975    0.2744 C   0  0  0  0  0  0  0  0  0  0  0  0
    1.0400    0.9839    0.1961 C   0  0  0  0  0  0  0  0  0  0  0  0
    2.1341    1.9225   -0.0416 C   0  0  0  0  0  0  0  0  0  0  0  0
    1.9314    3.2158   -0.5317 C   0  0  0  0  0  0  0  0  0  0  0  0
    2.9825    4.0802   -0.6392 C   0  0  0  0  0  0  0  0  0  0  0  0
    4.2696    3.6849   -0.2915 C   0  0  0  0  0  0  0  0  0  0  0  0
   -4.3414    2.7130    0.0898 C   0  0  0  0  0  0  0  0  0  0  0  0
   -5.3312    1.8525   -0.2790 C   0  0  0  0  0  0  0  0  0  0  0  0
   -5.0368    0.5307   -0.5960 C   0  0  0  0  0  0  0  0  0  0  0  0
   -3.7617    0.0540   -0.4954 C   0  0  0  0  0  0  0  0  0  0  0  0
    5.5164    2.1117    0.3953 H   0  0  0  0  0  0  0  0  0  0  0  0
    4.7370   -0.2167    0.5456 H   0  0  0  0  0  0  0  0  0  0  0  0
    2.9701   -1.8183    0.6584 H   0  0  0  0  0  0  0  0  0  0  0  0
    2.6070   -2.5965   -0.8224 H   0  0  0  0  0  0  0  0  0  0  0  0
    3.0176   -4.9779   -0.9574 H   0  0  0  0  0  0  0  0  0  0  0  0
    1.2635   -6.5976   -0.3642 H   0  0  0  0  0  0  0  0  0  0  0  0
   -0.9445   -5.8316    0.3339 H   0  0  0  0  0  0  0  0  0  0  0  0
   -2.5601   -3.9938    0.5030 H   0  0  0  0  0  0  0  0  0  0  0  0
   -3.0595   -1.6642    0.6510 H   0  0  0  0  0  0  0  0  0  0  0  0
   -2.1770    4.2190    0.4853 H   0  0  0  0  0  0  0  0  0  0  0  0
    0.0928    3.4890    0.6103 H   0  0  0  0  0  0  0  0  0  0  0  0
    0.9567    3.5310   -0.8743 H   0  0  0  0  0  0  0  0  0  0  0  0
    2.8118    5.0837   -1.0010 H   0  0  0  0  0  0  0  0  0  0  0  0
    5.0796    4.3965   -0.3400 H   0  0  0  0  0  0  0  0  0  0  0  0
   -4.5787    3.7357    0.3443 H   0  0  0  0  0  0  0  0  0  0  0  0
   -6.3520    2.1991   -0.3240 H   0  0  0  0  0  0  0  0  0  0  0  0
   -5.8269   -0.1276   -0.9268 H   0  0  0  0  0  0  0  0  0  0  0  0
   -3.5539   -0.9549   -0.8202 H   0  0  0  0  0  0  0  0  0  0  0  0
  1  2  2  0  0  0  0
  2  3  1  0  0  0  0
  3  4  2  0  0  0  0
  4  5  1  0  0  0  0
  5  6  1  0  0  0  0
  6  7  2  0  0  0  0
  7  8  1  0  0  0  0
  8  9  2  0  0  0  0
  9 10  1  0  0  0  0
 10 11  2  0  0  0  0
 11 12  1  0  0  0  0
  7 12  1  0  0  0  0
 12 13  2  0  0  0  0
 13 14  1  0  0  0  0
 14 15  2  0  0  0  0
  6 15  1  0  0  0  0
 15 16  1  0  0  0  0
 16 17  1  0  0  0  0
 17 18  2  0  0  0  0
 18 19  1  0  0  0  0
 19 20  2  0  0  0  0
 20 21  1  0  0  0  0
 16 21  2  0  0  0  0
 21 22  1  0  0  0  0
  5 22  2  0  0  0  0
 22 23  1  0  0  0  0
  2 23  1  0  0  0  0
 23 24  2  0  0  0  0
 24 25  1  0  0  0  0
 25 26  2  0  0  0  0
  1 26  1  0  0  0  0
 18 27  1  0  0  0  0
 27 28  2  0  0  0  0
 28 29  1  0  0  0  0
 29 30  2  0  0  0  0
 17 30  1  0  0  0  0
  1 31  1  0  0  0  0
  3 32  1  0  0  0  0
  4 33  1  0  0  0  0
  8 34  1  0  0  0  0
  9 35  1  0  0  0  0
 10 36  1  0  0  0  0
 11 37  1  0  0  0  0
 13 38  1  0  0  0  0
 14 39  1  0  0  0  0
 19 40  1  0  0  0  0
 20 41  1  0  0  0  0
 24 42  1  0  0  0  0
 25 43  1  0  0  0  0
 26 44  1  0  0  0  0
 27 45  1  0  0  0  0
 28 46  1  0  0  0  0
 29 47  1  0  0  0  0
 30 48  1  0  0  0  0
M  END
$$$$
