C20H12
APtclcactv01171906213D 0   0.00000     0.00000
 
 32 36  0  0  0  0  0  0  0  0999 V2000
   -1.5497   -2.4233    0.0082 C   0  0  0  0  0  0  0  0  0  0  0  0
   -2.8743   -2.8054    0.0083 C   0  0  0  0  0  0  0  0  0  0  0  0
   -3.8804   -1.8519    0.0021 C   0  0  0  0  0  0  0  0  0  0  0  0
   -3.5697   -0.5080   -0.0029 C   0  0  0  0  0  0  0  0  0  0  0  0
   -2.2405   -0.0970   -0.0016 C   0  0  0  0  0  0  0  0  0  0  0  0
   -1.5992    1.2307   -0.0033 C   0  0  0  0  0  0  0  0  0  0  0  0
   -2.0063    2.5519   -0.0076 C   0  0  0  0  0  0  0  0  0  0  0  0
   -1.0673    3.5825   -0.0049 C   0  0  0  0  0  0  0  0  0  0  0  0
    0.2825    3.3772    0.0013 C   0  0  0  0  0  0  0  0  0  0  0  0
    0.7699    2.0533    0.0033 C   0  0  0  0  0  0  0  0  0  0  0  0
    2.1192    1.6996    0.0086 C   0  0  0  0  0  0  0  0  0  0  0  0
    2.4637    0.3408    0.0057 C   0  0  0  0  0  0  0  0  0  0  0  0
    1.4427   -0.7144   -0.0024 C   0  0  0  0  0  0  0  0  0  0  0  0
    0.0802   -0.3640   -0.0001 C   0  0  0  0  0  0  0  0  0  0  0  0
   -1.2105   -1.0718    0.0027 C   0  0  0  0  0  0  0  0  0  0  0  0
   -0.2158    0.9930    0.0000 C   0  0  0  0  0  0  0  0  0  0  0  0
    1.8527   -2.0581   -0.0139 C   0  0  0  0  0  0  0  0  0  0  0  0
    3.1789   -2.3580   -0.0129 C   0  0  0  0  0  0  0  0  0  0  0  0
    4.1519   -1.3598    0.0001 C   0  0  0  0  0  0  0  0  0  0  0  0
    3.8234   -0.0429    0.0096 C   0  0  0  0  0  0  0  0  0  0  0  0
   -0.7728   -3.1734    0.0169 H   0  0  0  0  0  0  0  0  0  0  0  0
   -3.1298   -3.8547    0.0129 H   0  0  0  0  0  0  0  0  0  0  0  0
   -4.9145   -2.1634    0.0008 H   0  0  0  0  0  0  0  0  0  0  0  0
   -4.3607    0.2274   -0.0082 H   0  0  0  0  0  0  0  0  0  0  0  0
   -3.0602    2.7877   -0.0134 H   0  0  0  0  0  0  0  0  0  0  0  0
   -1.4279    4.6005   -0.0083 H   0  0  0  0  0  0  0  0  0  0  0  0
    0.9654    4.2139    0.0042 H   0  0  0  0  0  0  0  0  0  0  0  0
    2.8860    2.4602    0.0144 H   0  0  0  0  0  0  0  0  0  0  0  0
    1.1177   -2.8493   -0.0231 H   0  0  0  0  0  0  0  0  0  0  0  0
    3.4856   -3.3935   -0.0220 H   0  0  0  0  0  0  0  0  0  0  0  0
    5.1945   -1.6417    0.0023 H   0  0  0  0  0  0  0  0  0  0  0  0
    4.5986    0.7090    0.0200 H   0  0  0  0  0  0  0  0  0  0  0  0
  1  2  2  0  0  0  0
  2  3  1  0  0  0  0
  3  4  2  0  0  0  0
  4  5  1  0  0  0  0
  5  6  1  0  0  0  0
  6  7  1  0  0  0  0
  7  8  2  0  0  0  0
  8  9  1  0  0  0  0
  9 10  2  0  0  0  0
 10 11  1  0  0  0  0
 11 12  2  0  0  0  0
 12 13  1  0  0  0  0
 13 14  2  0  0  0  0
 14 15  1  0  0  0  0
  1 15  1  0  0  0  0
  5 15  2  0  0  0  0
 14 16  1  0  0  0  0
 10 16  1  0  0  0  0
  6 16  2  0  0  0  0
 13 17  1  0  0  0  0
 17 18  2  0  0  0  0
 18 19  1  0  0  0  0
 19 20  2  0  0  0  0
 12 20  1  0  0  0  0
  1 21  1  0  0  0  0
  2 22  1  0  0  0  0
  3 23  1  0  0  0  0
  4 24  1  0  0  0  0
  7 25  1  0  0  0  0
  8 26  1  0  0  0  0
  9 27  1  0  0  0  0
 11 28  1  0  0  0  0
 17 29  1  0  0  0  0
 18 30  1  0  0  0  0
 19 31  1  0  0  0  0
 20 32  1  0  0  0  0
M  END
$$$$
