C34H20
APtclcactv01171906213D 0   0.00000     0.00000
 
 54 61  0  0  0  0  0  0  0  0999 V2000
   -6.4997   -2.0387   -0.0002 C   0  0  0  0  0  0  0  0  0  0  0  0
   -7.7643   -2.5845   -0.0000 C   0  0  0  0  0  0  0  0  0  0  0  0
   -8.8848   -1.7644    0.0013 C   0  0  0  0  0  0  0  0  0  0  0  0
   -8.7586   -0.4050    0.0020 C   0  0  0  0  0  0  0  0  0  0  0  0
   -7.4854    0.1806    0.0014 C   0  0  0  0  0  0  0  0  0  0  0  0
   -6.3472   -0.6519    0.0009 C   0  0  0  0  0  0  0  0  0  0  0  0
   -5.0093   -0.0404    0.0003 C   0  0  0  0  0  0  0  0  0  0  0  0
   -3.8753   -0.8261   -0.0006 C   0  0  0  0  0  0  0  0  0  0  0  0
   -2.6055   -0.2202   -0.0014 C   0  0  0  0  0  0  0  0  0  0  0  0
   -1.4576   -1.0102   -0.0016 C   0  0  0  0  0  0  0  0  0  0  0  0
   -0.1944   -0.4052   -0.0020 C   0  0  0  0  0  0  0  0  0  0  0  0
    0.9572   -1.1967   -0.0019 C   0  0  0  0  0  0  0  0  0  0  0  0
    2.2184   -0.5927   -0.0019 C   0  0  0  0  0  0  0  0  0  0  0  0
    3.3720   -1.3848   -0.0013 C   0  0  0  0  0  0  0  0  0  0  0  0
    4.6311   -0.7812   -0.0009 C   0  0  0  0  0  0  0  0  0  0  0  0
    5.7888   -1.5743    0.0001 C   0  0  0  0  0  0  0  0  0  0  0  0
    7.0385   -0.9692    0.0011 C   0  0  0  0  0  0  0  0  0  0  0  0
    8.2220   -1.7423    0.0018 C   0  0  0  0  0  0  0  0  0  0  0  0
    9.4274   -1.1207    0.0024 C   0  0  0  0  0  0  0  0  0  0  0  0
    9.5365    0.2720    0.0022 C   0  0  0  0  0  0  0  0  0  0  0  0
    8.4429    1.0741    0.0015 C   0  0  0  0  0  0  0  0  0  0  0  0
    7.1532    0.4953    0.0009 C   0  0  0  0  0  0  0  0  0  0  0  0
    6.0131    1.2880    0.0002 C   0  0  0  0  0  0  0  0  0  0  0  0
    4.7455    0.6855   -0.0011 C   0  0  0  0  0  0  0  0  0  0  0  0
    3.5954    1.4775   -0.0011 C   0  0  0  0  0  0  0  0  0  0  0  0
    2.3321    0.8748   -0.0020 C   0  0  0  0  0  0  0  0  0  0  0  0
    1.1789    1.6660   -0.0011 C   0  0  0  0  0  0  0  0  0  0  0  0
   -0.0820    1.0622   -0.0021 C   0  0  0  0  0  0  0  0  0  0  0  0
   -1.2388    1.8519   -0.0009 C   0  0  0  0  0  0  0  0  0  0  0  0
   -2.4953    1.2458   -0.0015 C   0  0  0  0  0  0  0  0  0  0  0  0
   -3.6603    2.0329    0.0002 C   0  0  0  0  0  0  0  0  0  0  0  0
   -4.9047    1.4228    0.0001 C   0  0  0  0  0  0  0  0  0  0  0  0
   -6.1287    2.2235    0.0024 C   0  0  0  0  0  0  0  0  0  0  0  0
   -7.3386    1.6334    0.0011 C   0  0  0  0  0  0  0  0  0  0  0  0
   -5.6311   -2.6806    0.0032 H   0  0  0  0  0  0  0  0  0  0  0  0
   -7.8853   -3.6577   -0.0013 H   0  0  0  0  0  0  0  0  0  0  0  0
   -9.8695   -2.2079    0.0014 H   0  0  0  0  0  0  0  0  0  0  0  0
   -9.6400    0.2192    0.0027 H   0  0  0  0  0  0  0  0  0  0  0  0
   -3.9620   -1.9026   -0.0004 H   0  0  0  0  0  0  0  0  0  0  0  0
   -1.5418   -2.0869   -0.0011 H   0  0  0  0  0  0  0  0  0  0  0  0
    0.8733   -2.2735   -0.0014 H   0  0  0  0  0  0  0  0  0  0  0  0
    3.2886   -2.4616   -0.0007 H   0  0  0  0  0  0  0  0  0  0  0  0
    5.7081   -2.6513    0.0004 H   0  0  0  0  0  0  0  0  0  0  0  0
    8.1667   -2.8209    0.0022 H   0  0  0  0  0  0  0  0  0  0  0  0
   10.3270   -1.7183    0.0033 H   0  0  0  0  0  0  0  0  0  0  0  0
   10.5182    0.7222    0.0030 H   0  0  0  0  0  0  0  0  0  0  0  0
    8.5566    2.1481    0.0017 H   0  0  0  0  0  0  0  0  0  0  0  0
    6.1015    2.3643    0.0002 H   0  0  0  0  0  0  0  0  0  0  0  0
    3.6806    2.5541   -0.0002 H   0  0  0  0  0  0  0  0  0  0  0  0
    1.2623    2.7428    0.0000 H   0  0  0  0  0  0  0  0  0  0  0  0
   -1.1582    2.9289    0.0009 H   0  0  0  0  0  0  0  0  0  0  0  0
   -3.5857    3.1103    0.0017 H   0  0  0  0  0  0  0  0  0  0  0  0
   -6.0609    3.3014    0.0037 H   0  0  0  0  0  0  0  0  0  0  0  0
   -8.2246    2.2510    0.0028 H   0  0  0  0  0  0  0  0  0  0  0  0
  1  2  2  0  0  0  0
  2  3  1  0  0  0  0
  3  4  2  0  0  0  0
  4  5  1  0  0  0  0
  5  6  1  0  0  0  0
  1  6  1  0  0  0  0
  6  7  2  0  0  0  0
  7  8  1  0  0  0  0
  8  9  2  0  0  0  0
  9 10  1  0  0  0  0
 10 11  2  0  0  0  0
 11 12  1  0  0  0  0
 12 13  2  0  0  0  0
 13 14  1  0  0  0  0
 14 15  2  0  0  0  0
 15 16  1  0  0  0  0
 16 17  2  0  0  0  0
 17 18  1  0  0  0  0
 18 19  2  0  0  0  0
 19 20  1  0  0  0  0
 20 21  2  0  0  0  0
 21 22  1  0  0  0  0
 17 22  1  0  0  0  0
 22 23  2  0  0  0  0
 23 24  1  0  0  0  0
 15 24  1  0  0  0  0
 24 25  2  0  0  0  0
 25 26  1  0  0  0  0
 13 26  1  0  0  0  0
 26 27  2  0  0  0  0
 27 28  1  0  0  0  0
 11 28  1  0  0  0  0
 28 29  2  0  0  0  0
 29 30  1  0  0  0  0
  9 30  1  0  0  0  0
 30 31  2  0  0  0  0
 31 32  1  0  0  0  0
  7 32  1  0  0  0  0
 32 33  2  0  0  0  0
 33 34  1  0  0  0  0
  5 34  2  0  0  0  0
  1 35  1  0  0  0  0
  2 36  1  0  0  0  0
  3 37  1  0  0  0  0
  4 38  1  0  0  0  0
  8 39  1  0  0  0  0
 10 40  1  0  0  0  0
 12 41  1  0  0  0  0
 14 42  1  0  0  0  0
 16 43  1  0  0  0  0
 18 44  1  0  0  0  0
 19 45  1  0  0  0  0
 20 46  1  0  0  0  0
 21 47  1  0  0  0  0
 23 48  1  0  0  0  0
 25 49  1  0  0  0  0
 27 50  1  0  0  0  0
 29 51  1  0  0  0  0
 31 52  1  0  0  0  0
 33 53  1  0  0  0  0
 34 54  1  0  0  0  0
M  END
$$$$
