C16H10
APtclcactv01171906243D 0   0.00000     0.00000
 
 26 29  0  0  0  0  0  0  0  0999 V2000
   -0.7713   -2.3565   -0.0007 C   0  0  0  0  0  0  0  0  0  0  0  0
   -2.1671   -2.3925   -0.0003 C   0  0  0  0  0  0  0  0  0  0  0  0
   -2.9646   -1.2415    0.0001 C   0  0  0  0  0  0  0  0  0  0  0  0
   -2.3347    0.0000    0.0001 C   0  0  0  0  0  0  0  0  0  0  0  0
   -2.9646    1.2415    0.0005 C   0  0  0  0  0  0  0  0  0  0  0  0
   -2.1671    2.3925    0.0006 C   0  0  0  0  0  0  0  0  0  0  0  0
   -0.7713    2.3565    0.0000 C   0  0  0  0  0  0  0  0  0  0  0  0
   -0.0991    1.1368   -0.0003 C   0  0  0  0  0  0  0  0  0  0  0  0
    1.2937    0.6639   -0.0007 C   0  0  0  0  0  0  0  0  0  0  0  0
    1.2937   -0.6639   -0.0007 C   0  0  0  0  0  0  0  0  0  0  0  0
   -0.0991   -1.1368    0.0000 C   0  0  0  0  0  0  0  0  0  0  0  0
   -0.8771   -0.0000    0.0000 C   0  0  0  0  0  0  0  0  0  0  0  0
    2.5742   -1.3920    0.0006 C   0  0  0  0  0  0  0  0  0  0  0  0
    3.7136   -0.7365    0.0010 C   0  0  0  0  0  0  0  0  0  0  0  0
    3.7136    0.7365   -0.0001 C   0  0  0  0  0  0  0  0  0  0  0  0
    2.5741    1.3920   -0.0006 C   0  0  0  0  0  0  0  0  0  0  0  0
   -0.2101   -3.2792    0.0030 H   0  0  0  0  0  0  0  0  0  0  0  0
   -2.6558   -3.3556   -0.0006 H   0  0  0  0  0  0  0  0  0  0  0  0
   -4.0421   -1.3150   -0.0000 H   0  0  0  0  0  0  0  0  0  0  0  0
   -4.0421    1.3151    0.0005 H   0  0  0  0  0  0  0  0  0  0  0  0
   -2.6558    3.3557    0.0007 H   0  0  0  0  0  0  0  0  0  0  0  0
   -0.2101    3.2792   -0.0004 H   0  0  0  0  0  0  0  0  0  0  0  0
    2.5769   -2.4720    0.0015 H   0  0  0  0  0  0  0  0  0  0  0  0
    4.6485   -1.2772    0.0024 H   0  0  0  0  0  0  0  0  0  0  0  0
    4.6485    1.2772   -0.0002 H   0  0  0  0  0  0  0  0  0  0  0  0
    2.5768    2.4720   -0.0018 H   0  0  0  0  0  0  0  0  0  0  0  0
  1  2  2  0  0  0  0
  2  3  1  0  0  0  0
  3  4  2  0  0  0  0
  4  5  1  0  0  0  0
  5  6  2  0  0  0  0
  6  7  1  0  0  0  0
  7  8  2  0  0  0  0
  8  9  1  0  0  0  0
  9 10  2  0  0  0  0
 10 11  1  0  0  0  0
  1 11  1  0  0  0  0
 11 12  2  0  0  0  0
  8 12  1  0  0  0  0
  4 12  1  0  0  0  0
 10 13  1  0  0  0  0
 13 14  2  0  0  0  0
 14 15  1  0  0  0  0
 15 16  2  0  0  0  0
  9 16  1  0  0  0  0
  1 17  1  0  0  0  0
  2 18  1  0  0  0  0
  3 19  1  0  0  0  0
  5 20  1  0  0  0  0
  6 21  1  0  0  0  0
  7 22  1  0  0  0  0
 13 23  1  0  0  0  0
 14 24  1  0  0  0  0
 15 25  1  0  0  0  0
 16 26  1  0  0  0  0
M  END
$$$$
