C30H18
APtclcactv01171906223D 0   0.00000     0.00000
 
 48 54  0  0  0  0  0  0  0  0999 V2000
   -5.7123   -1.0113    0.1662 C   0  0  0  0  0  0  0  0  0  0  0  0
   -6.9329   -0.4042    0.1746 C   0  0  0  0  0  0  0  0  0  0  0  0
   -7.0474    0.9632   -0.0529 C   0  0  0  0  0  0  0  0  0  0  0  0
   -5.9479    1.7289   -0.3113 C   0  0  0  0  0  0  0  0  0  0  0  0
   -4.6814    1.1306   -0.3600 C   0  0  0  0  0  0  0  0  0  0  0  0
   -3.5226    1.8716   -0.6854 C   0  0  0  0  0  0  0  0  0  0  0  0
   -2.2930    1.3069   -0.6310 C   0  0  0  0  0  0  0  0  0  0  0  0
   -2.1045   -0.0256   -0.2212 C   0  0  0  0  0  0  0  0  0  0  0  0
   -3.2339   -0.8639   -0.0845 C   0  0  0  0  0  0  0  0  0  0  0  0
   -3.0758   -2.2505    0.0607 C   0  0  0  0  0  0  0  0  0  0  0  0
   -1.8379   -2.7872    0.1984 C   0  0  0  0  0  0  0  0  0  0  0  0
   -0.7020   -1.9549    0.2604 C   0  0  0  0  0  0  0  0  0  0  0  0
    0.5733   -2.5168    0.4849 C   0  0  0  0  0  0  0  0  0  0  0  0
    1.6843   -1.7467    0.5211 C   0  0  0  0  0  0  0  0  0  0  0  0
    1.6199   -0.3546    0.3361 C   0  0  0  0  0  0  0  0  0  0  0  0
    2.7807    0.4368    0.1835 C   0  0  0  0  0  0  0  0  0  0  0  0
    4.0976   -0.1181   -0.1177 C   0  0  0  0  0  0  0  0  0  0  0  0
    5.2269    0.7348   -0.0305 C   0  0  0  0  0  0  0  0  0  0  0  0
    5.0493    2.1179    0.1958 C   0  0  0  0  0  0  0  0  0  0  0  0
    3.8180    2.6436    0.3608 C   0  0  0  0  0  0  0  0  0  0  0  0
    2.6611    1.8356    0.3385 C   0  0  0  0  0  0  0  0  0  0  0  0
    1.3877    2.4261    0.4703 C   0  0  0  0  0  0  0  0  0  0  0  0
    0.2673    1.6632    0.4631 C   0  0  0  0  0  0  0  0  0  0  0  0
    0.3477    0.2719    0.3078 C   0  0  0  0  0  0  0  0  0  0  0  0
   -0.8360   -0.5538    0.1065 C   0  0  0  0  0  0  0  0  0  0  0  0
    6.5155    0.1952   -0.1817 C   0  0  0  0  0  0  0  0  0  0  0  0
    6.6658   -1.1143   -0.5325 C   0  0  0  0  0  0  0  0  0  0  0  0
    5.5518   -1.9206   -0.7348 C   0  0  0  0  0  0  0  0  0  0  0  0
    4.2897   -1.4336   -0.5488 C   0  0  0  0  0  0  0  0  0  0  0  0
   -4.5634   -0.2512   -0.0839 C   0  0  0  0  0  0  0  0  0  0  0  0
   -5.6295   -2.0702    0.3461 H   0  0  0  0  0  0  0  0  0  0  0  0
   -7.8173   -0.9937    0.3589 H   0  0  0  0  0  0  0  0  0  0  0  0
   -8.0216    1.4258   -0.0263 H   0  0  0  0  0  0  0  0  0  0  0  0
   -6.0583    2.7897   -0.4749 H   0  0  0  0  0  0  0  0  0  0  0  0
   -3.6116    2.9012   -0.9913 H   0  0  0  0  0  0  0  0  0  0  0  0
   -1.4458    1.8912   -0.9549 H   0  0  0  0  0  0  0  0  0  0  0  0
   -3.9400   -2.8967    0.0718 H   0  0  0  0  0  0  0  0  0  0  0  0
   -1.7229   -3.8604    0.2559 H   0  0  0  0  0  0  0  0  0  0  0  0
    0.6586   -3.5832    0.6484 H   0  0  0  0  0  0  0  0  0  0  0  0
    2.6336   -2.2173    0.7363 H   0  0  0  0  0  0  0  0  0  0  0  0
    5.9112    2.7667    0.2238 H   0  0  0  0  0  0  0  0  0  0  0  0
    3.7123    3.7077    0.5060 H   0  0  0  0  0  0  0  0  0  0  0  0
    1.3038    3.4965    0.5687 H   0  0  0  0  0  0  0  0  0  0  0  0
   -0.6852    2.1399    0.6285 H   0  0  0  0  0  0  0  0  0  0  0  0
    7.3857    0.8124   -0.0259 H   0  0  0  0  0  0  0  0  0  0  0  0
    7.6558   -1.5254   -0.6660 H   0  0  0  0  0  0  0  0  0  0  0  0
    5.6853   -2.9469   -1.0463 H   0  0  0  0  0  0  0  0  0  0  0  0
    3.4449   -2.0648   -0.7840 H   0  0  0  0  0  0  0  0  0  0  0  0
  1  2  2  0  0  0  0
  2  3  1  0  0  0  0
  3  4  2  0  0  0  0
  4  5  1  0  0  0  0
  5  6  1  0  0  0  0
  6  7  2  0  0  0  0
  7  8  1  0  0  0  0
  8  9  1  0  0  0  0
  9 10  2  0  0  0  0
 10 11  1  0  0  0  0
 11 12  2  0  0  0  0
 12 13  1  0  0  0  0
 13 14  2  0  0  0  0
 14 15  1  0  0  0  0
 15 16  2  0  0  0  0
 16 17  1  0  0  0  0
 17 18  2  0  0  0  0
 18 19  1  0  0  0  0
 19 20  2  0  0  0  0
 20 21  1  0  0  0  0
 16 21  1  0  0  0  0
 21 22  2  0  0  0  0
 22 23  1  0  0  0  0
 23 24  2  0  0  0  0
 15 24  1  0  0  0  0
 24 25  1  0  0  0  0
  8 25  2  0  0  0  0
 12 25  1  0  0  0  0
 18 26  1  0  0  0  0
 26 27  2  0  0  0  0
 27 28  1  0  0  0  0
 28 29  2  0  0  0  0
 17 29  1  0  0  0  0
  9 30  1  0  0  0  0
  1 30  1  0  0  0  0
  5 30  2  0  0  0  0
  1 31  1  0  0  0  0
  2 32  1  0  0  0  0
  3 33  1  0  0  0  0
  4 34  1  0  0  0  0
  6 35  1  0  0  0  0
  7 36  1  0  0  0  0
 10 37  1  0  0  0  0
 11 38  1  0  0  0  0
 13 39  1  0  0  0  0
 14 40  1  0  0  0  0
 19 41  1  0  0  0  0
 20 42  1  0  0  0  0
 22 43  1  0  0  0  0
 23 44  1  0  0  0  0
 26 45  1  0  0  0  0
 27 46  1  0  0  0  0
 28 47  1  0  0  0  0
 29 48  1  0  0  0  0
M  END
$$$$
