C20H12
APtclcactv01171906233D 0   0.00000     0.00000
 
 32 36  0  0  0  0  0  0  0  0999 V2000
   -0.8671   -2.2829    0.0033 C   0  0  0  0  0  0  0  0  0  0  0  0
   -2.1710   -2.7736    0.0010 C   0  0  0  0  0  0  0  0  0  0  0  0
   -3.2736   -1.9624   -0.0029 C   0  0  0  0  0  0  0  0  0  0  0  0
   -3.0926   -0.5690   -0.0030 C   0  0  0  0  0  0  0  0  0  0  0  0
   -4.1248    0.3850   -0.0059 C   0  0  0  0  0  0  0  0  0  0  0  0
   -3.7977    1.7137   -0.0045 C   0  0  0  0  0  0  0  0  0  0  0  0
   -2.4812    2.1720   -0.0005 C   0  0  0  0  0  0  0  0  0  0  0  0
   -1.4359    1.2632    0.0013 C   0  0  0  0  0  0  0  0  0  0  0  0
    0.0393    1.3147    0.0040 C   0  0  0  0  0  0  0  0  0  0  0  0
    0.9461    2.3846    0.0065 C   0  0  0  0  0  0  0  0  0  0  0  0
    2.2868    2.1734    0.0040 C   0  0  0  0  0  0  0  0  0  0  0  0
    2.8004    0.8626   -0.0004 C   0  0  0  0  0  0  0  0  0  0  0  0
    1.9112   -0.2394    0.0041 C   0  0  0  0  0  0  0  0  0  0  0  0
    0.5162   -0.0099    0.0043 C   0  0  0  0  0  0  0  0  0  0  0  0
   -0.6456   -0.9139    0.0027 C   0  0  0  0  0  0  0  0  0  0  0  0
   -1.7792   -0.0927    0.0005 C   0  0  0  0  0  0  0  0  0  0  0  0
    2.4304   -1.5428    0.0071 C   0  0  0  0  0  0  0  0  0  0  0  0
    3.7792   -1.7330   -0.0006 C   0  0  0  0  0  0  0  0  0  0  0  0
    4.6545   -0.6496   -0.0099 C   0  0  0  0  0  0  0  0  0  0  0  0
    4.1856    0.6289   -0.0102 C   0  0  0  0  0  0  0  0  0  0  0  0
   -0.0311   -2.9667    0.0100 H   0  0  0  0  0  0  0  0  0  0  0  0
   -2.3186   -3.8435    0.0019 H   0  0  0  0  0  0  0  0  0  0  0  0
   -4.2668   -2.3867   -0.0061 H   0  0  0  0  0  0  0  0  0  0  0  0
   -5.1592    0.0744   -0.0095 H   0  0  0  0  0  0  0  0  0  0  0  0
   -4.5963    2.4408   -0.0069 H   0  0  0  0  0  0  0  0  0  0  0  0
   -2.2768    3.2325    0.0008 H   0  0  0  0  0  0  0  0  0  0  0  0
    0.5699    3.3970    0.0102 H   0  0  0  0  0  0  0  0  0  0  0  0
    2.9632    3.0153    0.0049 H   0  0  0  0  0  0  0  0  0  0  0  0
    1.7632   -2.3920    0.0158 H   0  0  0  0  0  0  0  0  0  0  0  0
    4.1754   -2.7377    0.0010 H   0  0  0  0  0  0  0  0  0  0  0  0
    5.7199   -0.8260   -0.0174 H   0  0  0  0  0  0  0  0  0  0  0  0
    4.8757    1.4596   -0.0171 H   0  0  0  0  0  0  0  0  0  0  0  0
  1  2  2  0  0  0  0
  2  3  1  0  0  0  0
  3  4  2  0  0  0  0
  4  5  1  0  0  0  0
  5  6  2  0  0  0  0
  6  7  1  0  0  0  0
  7  8  2  0  0  0  0
  8  9  1  0  0  0  0
  9 10  1  0  0  0  0
 10 11  2  0  0  0  0
 11 12  1  0  0  0  0
 12 13  2  0  0  0  0
 13 14  1  0  0  0  0
  9 14  2  0  0  0  0
 14 15  1  0  0  0  0
  1 15  1  0  0  0  0
 15 16  2  0  0  0  0
  8 16  1  0  0  0  0
  4 16  1  0  0  0  0
 13 17  1  0  0  0  0
 17 18  2  0  0  0  0
 18 19  1  0  0  0  0
 19 20  2  0  0  0  0
 12 20  1  0  0  0  0
  1 21  1  0  0  0  0
  2 22  1  0  0  0  0
  3 23  1  0  0  0  0
  5 24  1  0  0  0  0
  6 25  1  0  0  0  0
  7 26  1  0  0  0  0
 10 27  1  0  0  0  0
 11 28  1  0  0  0  0
 17 29  1  0  0  0  0
 18 30  1  0  0  0  0
 19 31  1  0  0  0  0
 20 32  1  0  0  0  0
M  END
$$$$
