C34H20
APtclcactv01171906223D 0   0.00000     0.00000
 
 54 61  0  0  0  0  0  0  0  0999 V2000
   -6.8619   -1.7888   -0.0012 C   0  0  0  0  0  0  0  0  0  0  0  0
   -8.2231   -1.6932   -0.0008 C   0  0  0  0  0  0  0  0  0  0  0  0
   -8.8498   -0.4511   -0.0008 C   0  0  0  0  0  0  0  0  0  0  0  0
   -8.1224    0.7015   -0.0017 C   0  0  0  0  0  0  0  0  0  0  0  0
   -6.7201    0.6394   -0.0020 C   0  0  0  0  0  0  0  0  0  0  0  0
   -5.9396    1.8147   -0.0019 C   0  0  0  0  0  0  0  0  0  0  0  0
   -4.5874    1.7568   -0.0016 C   0  0  0  0  0  0  0  0  0  0  0  0
   -3.9062    0.5280   -0.0011 C   0  0  0  0  0  0  0  0  0  0  0  0
   -2.4400    0.4733   -0.0001 C   0  0  0  0  0  0  0  0  0  0  0  0
   -1.6795    1.6374    0.0006 C   0  0  0  0  0  0  0  0  0  0  0  0
   -0.2877    1.5548    0.0019 C   0  0  0  0  0  0  0  0  0  0  0  0
    0.5247    2.7696    0.0022 C   0  0  0  0  0  0  0  0  0  0  0  0
    1.8704    2.7044    0.0024 C   0  0  0  0  0  0  0  0  0  0  0  0
    2.5621    1.4171    0.0024 C   0  0  0  0  0  0  0  0  0  0  0  0
    3.9562    1.3642    0.0013 C   0  0  0  0  0  0  0  0  0  0  0  0
    4.6019    0.1335    0.0009 C   0  0  0  0  0  0  0  0  0  0  0  0
    6.0686    0.0576   -0.0008 C   0  0  0  0  0  0  0  0  0  0  0  0
    6.6851   -1.2128   -0.0016 C   0  0  0  0  0  0  0  0  0  0  0  0
    5.8570   -2.4140    0.0000 C   0  0  0  0  0  0  0  0  0  0  0  0
    4.5122   -2.3231    0.0020 C   0  0  0  0  0  0  0  0  0  0  0  0
    3.8528   -1.0697    0.0017 C   0  0  0  0  0  0  0  0  0  0  0  0
    2.4565   -1.0146    0.0036 C   0  0  0  0  0  0  0  0  0  0  0  0
    1.8136    0.2145    0.0028 C   0  0  0  0  0  0  0  0  0  0  0  0
    0.3431    0.2851    0.0025 C   0  0  0  0  0  0  0  0  0  0  0  0
   -0.4127   -0.8772    0.0028 C   0  0  0  0  0  0  0  0  0  0  0  0
   -1.8082   -0.7971    0.0006 C   0  0  0  0  0  0  0  0  0  0  0  0
   -2.5932   -1.9726    0.0015 C   0  0  0  0  0  0  0  0  0  0  0  0
   -3.9432   -1.9129    0.0000 C   0  0  0  0  0  0  0  0  0  0  0  0
   -4.6243   -0.6814   -0.0010 C   0  0  0  0  0  0  0  0  0  0  0  0
   -6.0870   -0.6254   -0.0016 C   0  0  0  0  0  0  0  0  0  0  0  0
    8.0832   -1.2966   -0.0033 C   0  0  0  0  0  0  0  0  0  0  0  0
    8.8286   -0.1529   -0.0043 C   0  0  0  0  0  0  0  0  0  0  0  0
    8.2190    1.0955   -0.0035 C   0  0  0  0  0  0  0  0  0  0  0  0
    6.8571    1.2088   -0.0022 C   0  0  0  0  0  0  0  0  0  0  0  0
   -6.3857   -2.7582    0.0033 H   0  0  0  0  0  0  0  0  0  0  0  0
   -8.8212   -2.5925   -0.0008 H   0  0  0  0  0  0  0  0  0  0  0  0
   -9.9285   -0.3994   -0.0005 H   0  0  0  0  0  0  0  0  0  0  0  0
   -8.6228    1.6585   -0.0024 H   0  0  0  0  0  0  0  0  0  0  0  0
   -6.4296    2.7771   -0.0023 H   0  0  0  0  0  0  0  0  0  0  0  0
   -4.0195    2.6754   -0.0021 H   0  0  0  0  0  0  0  0  0  0  0  0
   -2.1651    2.6020   -0.0003 H   0  0  0  0  0  0  0  0  0  0  0  0
    0.0390    3.7342    0.0019 H   0  0  0  0  0  0  0  0  0  0  0  0
    2.4469    3.6177    0.0023 H   0  0  0  0  0  0  0  0  0  0  0  0
    4.5324    2.2776    0.0005 H   0  0  0  0  0  0  0  0  0  0  0  0
    6.3266   -3.3865   -0.0008 H   0  0  0  0  0  0  0  0  0  0  0  0
    3.9230   -3.2283    0.0028 H   0  0  0  0  0  0  0  0  0  0  0  0
    1.8790   -1.9273    0.0058 H   0  0  0  0  0  0  0  0  0  0  0  0
    0.0750   -1.8408    0.0028 H   0  0  0  0  0  0  0  0  0  0  0  0
   -2.1051   -2.9360    0.0030 H   0  0  0  0  0  0  0  0  0  0  0  0
   -4.5123   -2.8308    0.0008 H   0  0  0  0  0  0  0  0  0  0  0  0
    8.5691   -2.2611   -0.0036 H   0  0  0  0  0  0  0  0  0  0  0  0
    9.9065   -0.2195   -0.0053 H   0  0  0  0  0  0  0  0  0  0  0  0
    8.8286    1.9870   -0.0042 H   0  0  0  0  0  0  0  0  0  0  0  0
    6.3936    2.1843   -0.0016 H   0  0  0  0  0  0  0  0  0  0  0  0
  1  2  2  0  0  0  0
  2  3  1  0  0  0  0
  3  4  2  0  0  0  0
  4  5  1  0  0  0  0
  5  6  1  0  0  0  0
  6  7  2  0  0  0  0
  7  8  1  0  0  0  0
  8  9  1  0  0  0  0
  9 10  1  0  0  0  0
 10 11  2  0  0  0  0
 11 12  1  0  0  0  0
 12 13  2  0  0  0  0
 13 14  1  0  0  0  0
 14 15  1  0  0  0  0
 15 16  2  0  0  0  0
 16 17  1  0  0  0  0
 17 18  2  0  0  0  0
 18 19  1  0  0  0  0
 19 20  2  0  0  0  0
 20 21  1  0  0  0  0
 16 21  1  0  0  0  0
 21 22  2  0  0  0  0
 22 23  1  0  0  0  0
 14 23  2  0  0  0  0
 23 24  1  0  0  0  0
 11 24  1  0  0  0  0
 24 25  2  0  0  0  0
 25 26  1  0  0  0  0
  9 26  2  0  0  0  0
 26 27  1  0  0  0  0
 27 28  2  0  0  0  0
 28 29  1  0  0  0  0
  8 29  2  0  0  0  0
 29 30  1  0  0  0  0
  1 30  1  0  0  0  0
  5 30  2  0  0  0  0
 18 31  1  0  0  0  0
 31 32  2  0  0  0  0
 32 33  1  0  0  0  0
 33 34  2  0  0  0  0
 17 34  1  0  0  0  0
  1 35  1  0  0  0  0
  2 36  1  0  0  0  0
  3 37  1  0  0  0  0
  4 38  1  0  0  0  0
  6 39  1  0  0  0  0
  7 40  1  0  0  0  0
 10 41  1  0  0  0  0
 12 42  1  0  0  0  0
 13 43  1  0  0  0  0
 15 44  1  0  0  0  0
 19 45  1  0  0  0  0
 20 46  1  0  0  0  0
 22 47  1  0  0  0  0
 25 48  1  0  0  0  0
 27 49  1  0  0  0  0
 28 50  1  0  0  0  0
 31 51  1  0  0  0  0
 32 52  1  0  0  0  0
 33 53  1  0  0  0  0
 34 54  1  0  0  0  0
M  END
$$$$
