C34H16
APtclcactv01171906233D 0   0.00000     0.00000
 
 50 59  0  0  0  0  0  0  0  0999 V2000
    5.1569   -2.0024    0.0018 C   0  0  0  0  0  0  0  0  0  0  0  0
    3.7745   -2.2117    0.0011 C   0  0  0  0  0  0  0  0  0  0  0  0
    3.2293   -3.5186    0.0019 C   0  0  0  0  0  0  0  0  0  0  0  0
    1.8935   -3.7205    0.0005 C   0  0  0  0  0  0  0  0  0  0  0  0
    0.9933   -2.6257   -0.0013 C   0  0  0  0  0  0  0  0  0  0  0  0
    1.5134   -1.3082   -0.0018 C   0  0  0  0  0  0  0  0  0  0  0  0
    2.9086   -1.0932   -0.0009 C   0  0  0  0  0  0  0  0  0  0  0  0
    3.4449    0.2138   -0.0005 C   0  0  0  0  0  0  0  0  0  0  0  0
    2.5418    1.3749   -0.0009 C   0  0  0  0  0  0  0  0  0  0  0  0
    3.0221    2.6897   -0.0002 C   0  0  0  0  0  0  0  0  0  0  0  0
    2.1657    3.7507    0.0005 C   0  0  0  0  0  0  0  0  0  0  0  0
    0.7743    3.5589    0.0006 C   0  0  0  0  0  0  0  0  0  0  0  0
   -0.1271    4.6461    0.0015 C   0  0  0  0  0  0  0  0  0  0  0  0
   -1.4667    4.4418    0.0010 C   0  0  0  0  0  0  0  0  0  0  0  0
   -2.0068    3.1368    0.0001 C   0  0  0  0  0  0  0  0  0  0  0  0
   -3.3933    2.9129    0.0005 C   0  0  0  0  0  0  0  0  0  0  0  0
   -3.8977    1.6470    0.0003 C   0  0  0  0  0  0  0  0  0  0  0  0
   -3.0521    0.5302   -0.0004 C   0  0  0  0  0  0  0  0  0  0  0  0
   -3.5944   -0.8374   -0.0001 C   0  0  0  0  0  0  0  0  0  0  0  0
   -2.7266   -1.9484    0.0001 C   0  0  0  0  0  0  0  0  0  0  0  0
   -1.2671   -1.7478   -0.0001 C   0  0  0  0  0  0  0  0  0  0  0  0
   -0.3904   -2.8277   -0.0022 C   0  0  0  0  0  0  0  0  0  0  0  0
   -0.7581   -0.4305   -0.0004 C   0  0  0  0  0  0  0  0  0  0  0  0
    0.6313   -0.2133   -0.0037 C   0  0  0  0  0  0  0  0  0  0  0  0
    1.1529    1.1506   -0.0014 C   0  0  0  0  0  0  0  0  0  0  0  0
    0.2626    2.2423   -0.0006 C   0  0  0  0  0  0  0  0  0  0  0  0
   -1.1318    2.0278   -0.0006 C   0  0  0  0  0  0  0  0  0  0  0  0
   -1.6591    0.7191   -0.0009 C   0  0  0  0  0  0  0  0  0  0  0  0
   -3.2615   -3.2384    0.0008 C   0  0  0  0  0  0  0  0  0  0  0  0
   -4.6262   -3.4173    0.0014 C   0  0  0  0  0  0  0  0  0  0  0  0
   -5.4809   -2.3237    0.0008 C   0  0  0  0  0  0  0  0  0  0  0  0
   -4.9770   -1.0436    0.0005 C   0  0  0  0  0  0  0  0  0  0  0  0
    4.8277    0.3817    0.0005 C   0  0  0  0  0  0  0  0  0  0  0  0
    5.6643   -0.7195    0.0004 C   0  0  0  0  0  0  0  0  0  0  0  0
    5.8295   -2.8474    0.0078 H   0  0  0  0  0  0  0  0  0  0  0  0
    3.8938   -4.3700    0.0034 H   0  0  0  0  0  0  0  0  0  0  0  0
    1.5066   -4.7288    0.0004 H   0  0  0  0  0  0  0  0  0  0  0  0
    4.0875    2.8665    0.0000 H   0  0  0  0  0  0  0  0  0  0  0  0
    2.5636    4.7547    0.0014 H   0  0  0  0  0  0  0  0  0  0  0  0
    0.2570    5.6555    0.0029 H   0  0  0  0  0  0  0  0  0  0  0  0
   -2.1330    5.2918    0.0017 H   0  0  0  0  0  0  0  0  0  0  0  0
   -4.0689    3.7555    0.0013 H   0  0  0  0  0  0  0  0  0  0  0  0
   -4.9679    1.5022    0.0009 H   0  0  0  0  0  0  0  0  0  0  0  0
   -0.7829   -3.8339   -0.0047 H   0  0  0  0  0  0  0  0  0  0  0  0
   -2.6045   -4.0955    0.0006 H   0  0  0  0  0  0  0  0  0  0  0  0
   -5.0353   -4.4168    0.0021 H   0  0  0  0  0  0  0  0  0  0  0  0
   -6.5497   -2.4788    0.0009 H   0  0  0  0  0  0  0  0  0  0  0  0
   -5.6492   -0.1983   -0.0003 H   0  0  0  0  0  0  0  0  0  0  0  0
    5.2484    1.3763    0.0004 H   0  0  0  0  0  0  0  0  0  0  0  0
    6.7342   -0.5725    0.0018 H   0  0  0  0  0  0  0  0  0  0  0  0
  1  2  2  0  0  0  0
  2  3  1  0  0  0  0
  3  4  2  0  0  0  0
  4  5  1  0  0  0  0
  5  6  1  0  0  0  0
  6  7  1  0  0  0  0
  2  7  1  0  0  0  0
  7  8  2  0  0  0  0
  8  9  1  0  0  0  0
  9 10  1  0  0  0  0
 10 11  2  0  0  0  0
 11 12  1  0  0  0  0
 12 13  1  0  0  0  0
 13 14  2  0  0  0  0
 14 15  1  0  0  0  0
 15 16  1  0  0  0  0
 16 17  2  0  0  0  0
 17 18  1  0  0  0  0
 18 19  2  0  0  0  0
 19 20  1  0  0  0  0
 20 21  2  0  0  0  0
 21 22  1  0  0  0  0
  5 22  2  0  0  0  0
 21 23  1  0  0  0  0
 23 24  1  0  0  0  0
  6 24  2  0  0  0  0
 24 25  1  0  0  0  0
  9 25  2  0  0  0  0
 25 26  1  0  0  0  0
 12 26  2  0  0  0  0
 26 27  1  0  0  0  0
 15 27  2  0  0  0  0
 27 28  1  0  0  0  0
 23 28  2  0  0  0  0
 18 28  1  0  0  0  0
 20 29  1  0  0  0  0
 29 30  2  0  0  0  0
 30 31  1  0  0  0  0
 31 32  2  0  0  0  0
 19 32  1  0  0  0  0
  8 33  1  0  0  0  0
 33 34  2  0  0  0  0
  1 34  1  0  0  0  0
  1 35  1  0  0  0  0
  3 36  1  0  0  0  0
  4 37  1  0  0  0  0
 10 38  1  0  0  0  0
 11 39  1  0  0  0  0
 13 40  1  0  0  0  0
 14 41  1  0  0  0  0
 16 42  1  0  0  0  0
 17 43  1  0  0  0  0
 22 44  1  0  0  0  0
 29 45  1  0  0  0  0
 30 46  1  0  0  0  0
 31 47  1  0  0  0  0
 32 48  1  0  0  0  0
 33 49  1  0  0  0  0
 34 50  1  0  0  0  0
M  END
$$$$
