C26H16
APtclcactv01171906223D 0   0.00000     0.00000
 
 42 47  0  0  0  0  0  0  0  0999 V2000
    2.6362   -1.7827   -0.4815 C   0  0  0  0  0  0  0  0  0  0  0  0
    3.5279   -2.8163   -0.4486 C   0  0  0  0  0  0  0  0  0  0  0  0
    4.8532   -2.6043   -0.0829 C   0  0  0  0  0  0  0  0  0  0  0  0
    5.3000   -1.3480    0.1977 C   0  0  0  0  0  0  0  0  0  0  0  0
    4.4205   -0.2599    0.1039 C   0  0  0  0  0  0  0  0  0  0  0  0
    4.8989    1.0633    0.1996 C   0  0  0  0  0  0  0  0  0  0  0  0
    4.0534    2.1142    0.1464 C   0  0  0  0  0  0  0  0  0  0  0  0
    2.6579    1.9305    0.0504 C   0  0  0  0  0  0  0  0  0  0  0  0
    2.1178    0.6302   -0.0021 C   0  0  0  0  0  0  0  0  0  0  0  0
    0.6643    0.4774    0.0447 C   0  0  0  0  0  0  0  0  0  0  0  0
    0.0505   -0.7572    0.2128 C   0  0  0  0  0  0  0  0  0  0  0  0
   -1.3398   -0.8670    0.1739 C   0  0  0  0  0  0  0  0  0  0  0  0
   -1.9726   -2.1773    0.3012 C   0  0  0  0  0  0  0  0  0  0  0  0
   -3.3136   -2.3037    0.2611 C   0  0  0  0  0  0  0  0  0  0  0  0
   -4.1723   -1.1350    0.0975 C   0  0  0  0  0  0  0  0  0  0  0  0
   -3.6030    0.1524   -0.0119 C   0  0  0  0  0  0  0  0  0  0  0  0
   -2.1410    0.2946    0.0220 C   0  0  0  0  0  0  0  0  0  0  0  0
   -1.5367    1.5381   -0.0823 C   0  0  0  0  0  0  0  0  0  0  0  0
   -0.1441    1.6451   -0.0532 C   0  0  0  0  0  0  0  0  0  0  0  0
    0.4659    2.9202   -0.0901 C   0  0  0  0  0  0  0  0  0  0  0  0
    1.8049    3.0547   -0.0260 C   0  0  0  0  0  0  0  0  0  0  0  0
   -4.4386    1.2619   -0.1488 C   0  0  0  0  0  0  0  0  0  0  0  0
   -5.7947    1.0924   -0.1883 C   0  0  0  0  0  0  0  0  0  0  0  0
   -6.3556   -0.1748   -0.0958 C   0  0  0  0  0  0  0  0  0  0  0  0
   -5.5653   -1.2782    0.0455 C   0  0  0  0  0  0  0  0  0  0  0  0
    3.0377   -0.4946   -0.1193 C   0  0  0  0  0  0  0  0  0  0  0  0
    1.6377   -1.9704   -0.8466 H   0  0  0  0  0  0  0  0  0  0  0  0
    3.2001   -3.8110   -0.7114 H   0  0  0  0  0  0  0  0  0  0  0  0
    5.5322   -3.4403   -0.0194 H   0  0  0  0  0  0  0  0  0  0  0  0
    6.3265   -1.1913    0.4952 H   0  0  0  0  0  0  0  0  0  0  0  0
    5.9581    1.2373    0.3149 H   0  0  0  0  0  0  0  0  0  0  0  0
    4.4533    3.1171    0.1755 H   0  0  0  0  0  0  0  0  0  0  0  0
    0.6322   -1.6396    0.4311 H   0  0  0  0  0  0  0  0  0  0  0  0
   -1.3573   -3.0554    0.4278 H   0  0  0  0  0  0  0  0  0  0  0  0
   -3.7592   -3.2833    0.3513 H   0  0  0  0  0  0  0  0  0  0  0  0
   -2.1383    2.4297   -0.1845 H   0  0  0  0  0  0  0  0  0  0  0  0
   -0.1537    3.8009   -0.1717 H   0  0  0  0  0  0  0  0  0  0  0  0
    2.2383    4.0442   -0.0342 H   0  0  0  0  0  0  0  0  0  0  0  0
   -4.0215    2.2552   -0.2207 H   0  0  0  0  0  0  0  0  0  0  0  0
   -6.4378    1.9543   -0.2899 H   0  0  0  0  0  0  0  0  0  0  0  0
   -7.4286   -0.2886   -0.1370 H   0  0  0  0  0  0  0  0  0  0  0  0
   -6.0117   -2.2594    0.1157 H   0  0  0  0  0  0  0  0  0  0  0  0
  1  2  2  0  0  0  0
  2  3  1  0  0  0  0
  3  4  2  0  0  0  0
  4  5  1  0  0  0  0
  5  6  1  0  0  0  0
  6  7  2  0  0  0  0
  7  8  1  0  0  0  0
  8  9  1  0  0  0  0
  9 10  2  0  0  0  0
 10 11  1  0  0  0  0
 11 12  2  0  0  0  0
 12 13  1  0  0  0  0
 13 14  2  0  0  0  0
 14 15  1  0  0  0  0
 15 16  2  0  0  0  0
 16 17  1  0  0  0  0
 12 17  1  0  0  0  0
 17 18  2  0  0  0  0
 18 19  1  0  0  0  0
 10 19  1  0  0  0  0
 19 20  2  0  0  0  0
 20 21  1  0  0  0  0
  8 21  2  0  0  0  0
 16 22  1  0  0  0  0
 22 23  2  0  0  0  0
 23 24  1  0  0  0  0
 24 25  2  0  0  0  0
 15 25  1  0  0  0  0
  9 26  1  0  0  0  0
  1 26  1  0  0  0  0
  5 26  2  0  0  0  0
  1 27  1  0  0  0  0
  2 28  1  0  0  0  0
  3 29  1  0  0  0  0
  4 30  1  0  0  0  0
  6 31  1  0  0  0  0
  7 32  1  0  0  0  0
 11 33  1  0  0  0  0
 13 34  1  0  0  0  0
 14 35  1  0  0  0  0
 18 36  1  0  0  0  0
 20 37  1  0  0  0  0
 21 38  1  0  0  0  0
 22 39  1  0  0  0  0
 23 40  1  0  0  0  0
 24 41  1  0  0  0  0
 25 42  1  0  0  0  0
M  END
$$$$
