C32H16
APtclcactv01171906213D 0   0.00000     0.00000
 
 48 56  0  0  0  0  0  0  0  0999 V2000
   -1.3750   -3.1676    0.4211 C   0  0  0  0  0  0  0  0  0  0  0  0
   -2.3660   -4.1234    0.4148 C   0  0  0  0  0  0  0  0  0  0  0  0
   -3.6833   -3.7703    0.1613 C   0  0  0  0  0  0  0  0  0  0  0  0
   -4.0218   -2.4492   -0.0355 C   0  0  0  0  0  0  0  0  0  0  0  0
   -3.0343   -1.4666   -0.0004 C   0  0  0  0  0  0  0  0  0  0  0  0
   -1.6801   -1.8338    0.1447 C   0  0  0  0  0  0  0  0  0  0  0  0
   -0.6364   -0.8135   -0.0175 C   0  0  0  0  0  0  0  0  0  0  0  0
    0.7206   -1.1481   -0.1869 C   0  0  0  0  0  0  0  0  0  0  0  0
    1.1541   -2.4592   -0.4793 C   0  0  0  0  0  0  0  0  0  0  0  0
    2.4673   -2.7907   -0.4475 C   0  0  0  0  0  0  0  0  0  0  0  0
    3.4580   -1.8144   -0.1926 C   0  0  0  0  0  0  0  0  0  0  0  0
    4.8089   -2.1508   -0.0799 C   0  0  0  0  0  0  0  0  0  0  0  0
    5.7552   -1.1640    0.1268 C   0  0  0  0  0  0  0  0  0  0  0  0
    5.4010    0.1655    0.2110 C   0  0  0  0  0  0  0  0  0  0  0  0
    4.0532    0.5465    0.1022 C   0  0  0  0  0  0  0  0  0  0  0  0
    3.6861    1.9053    0.1377 C   0  0  0  0  0  0  0  0  0  0  0  0
    2.3477    2.2670    0.0842 C   0  0  0  0  0  0  0  0  0  0  0  0
    1.9359    3.6703    0.1020 C   0  0  0  0  0  0  0  0  0  0  0  0
    0.6289    4.0038    0.0717 C   0  0  0  0  0  0  0  0  0  0  0  0
   -0.4111    2.9766    0.0269 C   0  0  0  0  0  0  0  0  0  0  0  0
   -1.7531    3.3151    0.0006 C   0  0  0  0  0  0  0  0  0  0  0  0
   -2.7360    2.3077   -0.0401 C   0  0  0  0  0  0  0  0  0  0  0  0
   -4.0946    2.6648   -0.0858 C   0  0  0  0  0  0  0  0  0  0  0  0
   -5.0673    1.6952   -0.1224 C   0  0  0  0  0  0  0  0  0  0  0  0
   -4.7298    0.3517   -0.1056 C   0  0  0  0  0  0  0  0  0  0  0  0
   -3.3960   -0.0406   -0.0556 C   0  0  0  0  0  0  0  0  0  0  0  0
   -2.3778    0.9359   -0.0361 C   0  0  0  0  0  0  0  0  0  0  0  0
   -1.0170    0.5515   -0.0203 C   0  0  0  0  0  0  0  0  0  0  0  0
   -0.0318    1.5625    0.0067 C   0  0  0  0  0  0  0  0  0  0  0  0
    1.3259    1.2214    0.0066 C   0  0  0  0  0  0  0  0  0  0  0  0
    1.7047   -0.1314   -0.0829 C   0  0  0  0  0  0  0  0  0  0  0  0
    3.0707   -0.4608   -0.0536 C   0  0  0  0  0  0  0  0  0  0  0  0
   -0.3723   -3.4570    0.6984 H   0  0  0  0  0  0  0  0  0  0  0  0
   -2.1144   -5.1551    0.6101 H   0  0  0  0  0  0  0  0  0  0  0  0
   -4.4451   -4.5335    0.1170 H   0  0  0  0  0  0  0  0  0  0  0  0
   -5.0520   -2.1850   -0.2245 H   0  0  0  0  0  0  0  0  0  0  0  0
    0.4418   -3.2099   -0.7859 H   0  0  0  0  0  0  0  0  0  0  0  0
    2.7595   -3.8157   -0.6200 H   0  0  0  0  0  0  0  0  0  0  0  0
    5.1156   -3.1844   -0.1522 H   0  0  0  0  0  0  0  0  0  0  0  0
    6.7944   -1.4411    0.2262 H   0  0  0  0  0  0  0  0  0  0  0  0
    6.1621    0.9171    0.3621 H   0  0  0  0  0  0  0  0  0  0  0  0
    4.4477    2.6679    0.2043 H   0  0  0  0  0  0  0  0  0  0  0  0
    2.6849    4.4467    0.1406 H   0  0  0  0  0  0  0  0  0  0  0  0
    0.3459    5.0462    0.0817 H   0  0  0  0  0  0  0  0  0  0  0  0
   -2.0476    4.3538    0.0120 H   0  0  0  0  0  0  0  0  0  0  0  0
   -4.3745    3.7084   -0.0925 H   0  0  0  0  0  0  0  0  0  0  0  0
   -6.1077    1.9824   -0.1645 H   0  0  0  0  0  0  0  0  0  0  0  0
   -5.5127   -0.3918   -0.1303 H   0  0  0  0  0  0  0  0  0  0  0  0
  1  2  2  0  0  0  0
  2  3  1  0  0  0  0
  3  4  2  0  0  0  0
  4  5  1  0  0  0  0
  5  6  2  0  0  0  0
  1  6  1  0  0  0  0
  6  7  1  0  0  0  0
  7  8  2  0  0  0  0
  8  9  1  0  0  0  0
  9 10  2  0  0  0  0
 10 11  1  0  0  0  0
 11 12  2  0  0  0  0
 12 13  1  0  0  0  0
 13 14  2  0  0  0  0
 14 15  1  0  0  0  0
 15 16  2  0  0  0  0
 16 17  1  0  0  0  0
 17 18  1  0  0  0  0
 18 19  2  0  0  0  0
 19 20  1  0  0  0  0
 20 21  2  0  0  0  0
 21 22  1  0  0  0  0
 22 23  2  0  0  0  0
 23 24  1  0  0  0  0
 24 25  2  0  0  0  0
 25 26  1  0  0  0  0
  5 26  1  0  0  0  0
 26 27  2  0  0  0  0
 22 27  1  0  0  0  0
 27 28  1  0  0  0  0
  7 28  1  0  0  0  0
 28 29  2  0  0  0  0
 20 29  1  0  0  0  0
 29 30  1  0  0  0  0
 17 30  2  0  0  0  0
 30 31  1  0  0  0  0
  8 31  1  0  0  0  0
 31 32  2  0  0  0  0
 11 32  1  0  0  0  0
 15 32  1  0  0  0  0
  1 33  1  0  0  0  0
  2 34  1  0  0  0  0
  3 35  1  0  0  0  0
  4 36  1  0  0  0  0
  9 37  1  0  0  0  0
 10 38  1  0  0  0  0
 12 39  1  0  0  0  0
 13 40  1  0  0  0  0
 14 41  1  0  0  0  0
 16 42  1  0  0  0  0
 18 43  1  0  0  0  0
 19 44  1  0  0  0  0
 21 45  1  0  0  0  0
 23 46  1  0  0  0  0
 24 47  1  0  0  0  0
 25 48  1  0  0  0  0
M  END
$$$$
