C34H18
APtclcactv01171906243D 0   0.00000     0.00000
 
 52 60  0  0  0  0  0  0  0  0999 V2000
   -5.0200    2.7278    0.2072 C   0  0  0  0  0  0  0  0  0  0  0  0
   -5.9434    1.7075    0.2646 C   0  0  0  0  0  0  0  0  0  0  0  0
   -5.5467    0.3831    0.1779 C   0  0  0  0  0  0  0  0  0  0  0  0
   -4.2017    0.0593    0.0422 C   0  0  0  0  0  0  0  0  0  0  0  0
   -3.7711   -1.3389   -0.1190 C   0  0  0  0  0  0  0  0  0  0  0  0
   -4.6987   -2.3773   -0.1534 C   0  0  0  0  0  0  0  0  0  0  0  0
   -4.2806   -3.6700   -0.3830 C   0  0  0  0  0  0  0  0  0  0  0  0
   -2.9371   -3.9451   -0.5923 C   0  0  0  0  0  0  0  0  0  0  0  0
   -2.0005   -2.9372   -0.5282 C   0  0  0  0  0  0  0  0  0  0  0  0
   -2.3928   -1.6316   -0.2354 C   0  0  0  0  0  0  0  0  0  0  0  0
   -1.4159   -0.5610   -0.0055 C   0  0  0  0  0  0  0  0  0  0  0  0
   -1.8543    0.7835    0.0064 C   0  0  0  0  0  0  0  0  0  0  0  0
   -3.2356    1.0869    0.0468 C   0  0  0  0  0  0  0  0  0  0  0  0
   -3.6548    2.4351    0.0903 C   0  0  0  0  0  0  0  0  0  0  0  0
   -2.6942    3.4691    0.0166 C   0  0  0  0  0  0  0  0  0  0  0  0
   -1.3720    3.1793   -0.0426 C   0  0  0  0  0  0  0  0  0  0  0  0
   -0.9215    1.8461   -0.0328 C   0  0  0  0  0  0  0  0  0  0  0  0
    0.5028    1.5278   -0.0630 C   0  0  0  0  0  0  0  0  0  0  0  0
    0.8987    0.1836    0.1158 C   0  0  0  0  0  0  0  0  0  0  0  0
    2.2702   -0.1306    0.1356 C   0  0  0  0  0  0  0  0  0  0  0  0
    3.2300    0.8750   -0.0832 C   0  0  0  0  0  0  0  0  0  0  0  0
    4.6425    0.4923   -0.0959 C   0  0  0  0  0  0  0  0  0  0  0  0
    5.6474    1.4433   -0.3091 C   0  0  0  0  0  0  0  0  0  0  0  0
    6.9560    1.0586   -0.3271 C   0  0  0  0  0  0  0  0  0  0  0  0
    7.3125   -0.2752   -0.1413 C   0  0  0  0  0  0  0  0  0  0  0  0
    6.3641   -1.2266    0.0717 C   0  0  0  0  0  0  0  0  0  0  0  0
    5.0029   -0.8637    0.1139 C   0  0  0  0  0  0  0  0  0  0  0  0
    4.0284   -1.8415    0.3759 C   0  0  0  0  0  0  0  0  0  0  0  0
    2.6856   -1.5078    0.4035 C   0  0  0  0  0  0  0  0  0  0  0  0
    1.6517   -2.4931    0.7161 C   0  0  0  0  0  0  0  0  0  0  0  0
    0.3486   -2.1394    0.6493 C   0  0  0  0  0  0  0  0  0  0  0  0
   -0.0628   -0.8474    0.2588 C   0  0  0  0  0  0  0  0  0  0  0  0
    2.8069    2.1998   -0.2774 C   0  0  0  0  0  0  0  0  0  0  0  0
    1.4815    2.5146   -0.2661 C   0  0  0  0  0  0  0  0  0  0  0  0
   -5.3513    3.7550    0.2457 H   0  0  0  0  0  0  0  0  0  0  0  0
   -6.9912    1.9418    0.3771 H   0  0  0  0  0  0  0  0  0  0  0  0
   -6.2900   -0.3985    0.2239 H   0  0  0  0  0  0  0  0  0  0  0  0
   -5.7470   -2.1777    0.0072 H   0  0  0  0  0  0  0  0  0  0  0  0
   -5.0004   -4.4735   -0.3991 H   0  0  0  0  0  0  0  0  0  0  0  0
   -2.6211   -4.9540   -0.8106 H   0  0  0  0  0  0  0  0  0  0  0  0
   -0.9655   -3.1611   -0.7455 H   0  0  0  0  0  0  0  0  0  0  0  0
   -3.0149    4.5001    0.0096 H   0  0  0  0  0  0  0  0  0  0  0  0
   -0.6574    3.9872   -0.1002 H   0  0  0  0  0  0  0  0  0  0  0  0
    5.3914    2.4820   -0.4566 H   0  0  0  0  0  0  0  0  0  0  0  0
    7.7263    1.7985   -0.4862 H   0  0  0  0  0  0  0  0  0  0  0  0
    8.3544   -0.5581   -0.1677 H   0  0  0  0  0  0  0  0  0  0  0  0
    6.6509   -2.2594    0.2074 H   0  0  0  0  0  0  0  0  0  0  0  0
    4.3319   -2.8620    0.5581 H   0  0  0  0  0  0  0  0  0  0  0  0
    1.9300   -3.4978    0.9976 H   0  0  0  0  0  0  0  0  0  0  0  0
   -0.3913   -2.8667    0.9478 H   0  0  0  0  0  0  0  0  0  0  0  0
    3.5347    2.9817   -0.4387 H   0  0  0  0  0  0  0  0  0  0  0  0
    1.1841    3.5411   -0.4161 H   0  0  0  0  0  0  0  0  0  0  0  0
  1  2  2  0  0  0  0
  2  3  1  0  0  0  0
  3  4  2  0  0  0  0
  4  5  1  0  0  0  0
  5  6  2  0  0  0  0
  6  7  1  0  0  0  0
  7  8  2  0  0  0  0
  8  9  1  0  0  0  0
  9 10  2  0  0  0  0
  5 10  1  0  0  0  0
 10 11  1  0  0  0  0
 11 12  2  0  0  0  0
 12 13  1  0  0  0  0
  4 13  1  0  0  0  0
 13 14  2  0  0  0  0
  1 14  1  0  0  0  0
 14 15  1  0  0  0  0
 15 16  2  0  0  0  0
 16 17  1  0  0  0  0
 12 17  1  0  0  0  0
 17 18  2  0  0  0  0
 18 19  1  0  0  0  0
 19 20  2  0  0  0  0
 20 21  1  0  0  0  0
 21 22  2  0  0  0  0
 22 23  1  0  0  0  0
 23 24  2  0  0  0  0
 24 25  1  0  0  0  0
 25 26  2  0  0  0  0
 26 27  1  0  0  0  0
 22 27  1  0  0  0  0
 27 28  2  0  0  0  0
 28 29  1  0  0  0  0
 20 29  1  0  0  0  0
 29 30  2  0  0  0  0
 30 31  1  0  0  0  0
 31 32  2  0  0  0  0
 11 32  1  0  0  0  0
 19 32  1  0  0  0  0
 21 33  1  0  0  0  0
 33 34  2  0  0  0  0
 18 34  1  0  0  0  0
  1 35  1  0  0  0  0
  2 36  1  0  0  0  0
  3 37  1  0  0  0  0
  6 38  1  0  0  0  0
  7 39  1  0  0  0  0
  8 40  1  0  0  0  0
  9 41  1  0  0  0  0
 15 42  1  0  0  0  0
 16 43  1  0  0  0  0
 23 44  1  0  0  0  0
 24 45  1  0  0  0  0
 25 46  1  0  0  0  0
 26 47  1  0  0  0  0
 28 48  1  0  0  0  0
 30 49  1  0  0  0  0
 31 50  1  0  0  0  0
 33 51  1  0  0  0  0
 34 52  1  0  0  0  0
M  END
$$$$
