C30H16
APtclcactv01171906223D 0   0.00000     0.00000
 
 46 53  0  0  0  0  0  0  0  0999 V2000
   -6.1912    1.2324    0.0003 C   0  0  0  0  0  0  0  0  0  0  0  0
   -6.9829    0.1221   -0.0002 C   0  0  0  0  0  0  0  0  0  0  0  0
   -6.4270   -1.1524   -0.0009 C   0  0  0  0  0  0  0  0  0  0  0  0
   -5.0720   -1.3234   -0.0006 C   0  0  0  0  0  0  0  0  0  0  0  0
   -4.2345   -0.2062   -0.0000 C   0  0  0  0  0  0  0  0  0  0  0  0
   -4.7950    1.0908    0.0002 C   0  0  0  0  0  0  0  0  0  0  0  0
   -3.9488    2.2209    0.0007 C   0  0  0  0  0  0  0  0  0  0  0  0
   -2.6025    2.0881    0.0005 C   0  0  0  0  0  0  0  0  0  0  0  0
   -1.9859    0.8242    0.0004 C   0  0  0  0  0  0  0  0  0  0  0  0
   -0.5239    0.7112    0.0002 C   0  0  0  0  0  0  0  0  0  0  0  0
    0.0466   -0.5822    0.0001 C   0  0  0  0  0  0  0  0  0  0  0  0
    1.4388   -0.7440    0.0000 C   0  0  0  0  0  0  0  0  0  0  0  0
    2.2692    0.3894   -0.0004 C   0  0  0  0  0  0  0  0  0  0  0  0
    3.6638    0.2314    0.0001 C   0  0  0  0  0  0  0  0  0  0  0  0
    4.4930    1.3773   -0.0004 C   0  0  0  0  0  0  0  0  0  0  0  0
    5.8793    1.2067    0.0001 C   0  0  0  0  0  0  0  0  0  0  0  0
    6.4263   -0.0645    0.0005 C   0  0  0  0  0  0  0  0  0  0  0  0
    5.6328   -1.1899    0.0005 C   0  0  0  0  0  0  0  0  0  0  0  0
    4.2328   -1.0666    0.0005 C   0  0  0  0  0  0  0  0  0  0  0  0
    3.4123   -2.2102   -0.0001 C   0  0  0  0  0  0  0  0  0  0  0  0
    2.0306   -2.0836   -0.0001 C   0  0  0  0  0  0  0  0  0  0  0  0
    1.1482   -3.2483   -0.0006 C   0  0  0  0  0  0  0  0  0  0  0  0
   -0.1937   -3.0966   -0.0005 C   0  0  0  0  0  0  0  0  0  0  0  0
   -0.8079   -1.7702    0.0005 C   0  0  0  0  0  0  0  0  0  0  0  0
   -2.1884   -1.6171    0.0011 C   0  0  0  0  0  0  0  0  0  0  0  0
   -2.7726   -0.3479    0.0008 C   0  0  0  0  0  0  0  0  0  0  0  0
    3.8999    2.7113   -0.0008 C   0  0  0  0  0  0  0  0  0  0  0  0
    2.5590    2.8863   -0.0004 C   0  0  0  0  0  0  0  0  0  0  0  0
    1.6727    1.7252   -0.0008 C   0  0  0  0  0  0  0  0  0  0  0  0
    0.2870    1.8508   -0.0002 C   0  0  0  0  0  0  0  0  0  0  0  0
   -6.6366    2.2162   -0.0037 H   0  0  0  0  0  0  0  0  0  0  0  0
   -8.0571    0.2343    0.0002 H   0  0  0  0  0  0  0  0  0  0  0  0
   -7.0741   -2.0170   -0.0013 H   0  0  0  0  0  0  0  0  0  0  0  0
   -4.6504   -2.3177   -0.0004 H   0  0  0  0  0  0  0  0  0  0  0  0
   -4.3840    3.2093    0.0008 H   0  0  0  0  0  0  0  0  0  0  0  0
   -1.9859    2.9748    0.0002 H   0  0  0  0  0  0  0  0  0  0  0  0
    6.5272    2.0708   -0.0002 H   0  0  0  0  0  0  0  0  0  0  0  0
    7.5005   -0.1765    0.0006 H   0  0  0  0  0  0  0  0  0  0  0  0
    6.0874   -2.1696    0.0004 H   0  0  0  0  0  0  0  0  0  0  0  0
    3.8611   -3.1925   -0.0005 H   0  0  0  0  0  0  0  0  0  0  0  0
    1.5737   -4.2410   -0.0013 H   0  0  0  0  0  0  0  0  0  0  0  0
   -0.8255   -3.9726   -0.0009 H   0  0  0  0  0  0  0  0  0  0  0  0
   -2.8203   -2.4930    0.0005 H   0  0  0  0  0  0  0  0  0  0  0  0
    4.5458    3.5769   -0.0012 H   0  0  0  0  0  0  0  0  0  0  0  0
    2.1438    3.8833    0.0004 H   0  0  0  0  0  0  0  0  0  0  0  0
   -0.1642    2.8320    0.0002 H   0  0  0  0  0  0  0  0  0  0  0  0
  1  2  2  0  0  0  0
  2  3  1  0  0  0  0
  3  4  2  0  0  0  0
  4  5  1  0  0  0  0
  5  6  2  0  0  0  0
  1  6  1  0  0  0  0
  6  7  1  0  0  0  0
  7  8  2  0  0  0  0
  8  9  1  0  0  0  0
  9 10  2  0  0  0  0
 10 11  1  0  0  0  0
 11 12  2  0  0  0  0
 12 13  1  0  0  0  0
 13 14  2  0  0  0  0
 14 15  1  0  0  0  0
 15 16  2  0  0  0  0
 16 17  1  0  0  0  0
 17 18  2  0  0  0  0
 18 19  1  0  0  0  0
 14 19  1  0  0  0  0
 19 20  2  0  0  0  0
 20 21  1  0  0  0  0
 12 21  1  0  0  0  0
 21 22  2  0  0  0  0
 22 23  1  0  0  0  0
 23 24  2  0  0  0  0
 11 24  1  0  0  0  0
 24 25  1  0  0  0  0
 25 26  2  0  0  0  0
  5 26  1  0  0  0  0
  9 26  1  0  0  0  0
 15 27  1  0  0  0  0
 27 28  2  0  0  0  0
 28 29  1  0  0  0  0
 13 29  1  0  0  0  0
 29 30  2  0  0  0  0
 10 30  1  0  0  0  0
  1 31  1  0  0  0  0
  2 32  1  0  0  0  0
  3 33  1  0  0  0  0
  4 34  1  0  0  0  0
  7 35  1  0  0  0  0
  8 36  1  0  0  0  0
 16 37  1  0  0  0  0
 17 38  1  0  0  0  0
 18 39  1  0  0  0  0
 20 40  1  0  0  0  0
 22 41  1  0  0  0  0
 23 42  1  0  0  0  0
 25 43  1  0  0  0  0
 27 44  1  0  0  0  0
 28 45  1  0  0  0  0
 30 46  1  0  0  0  0
M  END
$$$$
