C18H12
APtclcactv01171906243D 0   0.00000     0.00000
 
 30 33  0  0  0  0  0  0  0  0999 V2000
   -3.7674    1.1375    0.0011 C   0  0  0  0  0  0  0  0  0  0  0  0
   -4.6007    0.0588    0.0018 C   0  0  0  0  0  0  0  0  0  0  0  0
   -4.0938   -1.2366    0.0015 C   0  0  0  0  0  0  0  0  0  0  0  0
   -2.7475   -1.4601    0.0001 C   0  0  0  0  0  0  0  0  0  0  0  0
   -1.8659   -0.3755   -0.0010 C   0  0  0  0  0  0  0  0  0  0  0  0
   -0.4147   -0.5689   -0.0015 C   0  0  0  0  0  0  0  0  0  0  0  0
    0.1496   -1.8564   -0.0012 C   0  0  0  0  0  0  0  0  0  0  0  0
    1.4899   -2.0403   -0.0007 C   0  0  0  0  0  0  0  0  0  0  0  0
    2.3775   -0.9433   -0.0004 C   0  0  0  0  0  0  0  0  0  0  0  0
    3.7675   -1.1373    0.0011 C   0  0  0  0  0  0  0  0  0  0  0  0
    4.6007   -0.0586    0.0017 C   0  0  0  0  0  0  0  0  0  0  0  0
    4.0936    1.2368    0.0015 C   0  0  0  0  0  0  0  0  0  0  0  0
    2.7473    1.4601    0.0000 C   0  0  0  0  0  0  0  0  0  0  0  0
    1.8659    0.3753   -0.0012 C   0  0  0  0  0  0  0  0  0  0  0  0
    0.4147    0.5687   -0.0017 C   0  0  0  0  0  0  0  0  0  0  0  0
   -0.1495    1.8562   -0.0010 C   0  0  0  0  0  0  0  0  0  0  0  0
   -1.4898    2.0401   -0.0006 C   0  0  0  0  0  0  0  0  0  0  0  0
   -2.3774    0.9432   -0.0004 C   0  0  0  0  0  0  0  0  0  0  0  0
   -4.1751    2.1375   -0.0029 H   0  0  0  0  0  0  0  0  0  0  0  0
   -5.6697    0.2121    0.0029 H   0  0  0  0  0  0  0  0  0  0  0  0
   -4.7738   -2.0756    0.0028 H   0  0  0  0  0  0  0  0  0  0  0  0
   -2.3651   -2.4701    0.0003 H   0  0  0  0  0  0  0  0  0  0  0  0
   -0.5015   -2.7181   -0.0011 H   0  0  0  0  0  0  0  0  0  0  0  0
    1.8876   -3.0444   -0.0002 H   0  0  0  0  0  0  0  0  0  0  0  0
    4.1754   -2.1373    0.0020 H   0  0  0  0  0  0  0  0  0  0  0  0
    5.6697   -0.2117    0.0029 H   0  0  0  0  0  0  0  0  0  0  0  0
    4.7735    2.0759    0.0027 H   0  0  0  0  0  0  0  0  0  0  0  0
    2.3648    2.4701    0.0002 H   0  0  0  0  0  0  0  0  0  0  0  0
    0.5016    2.7179   -0.0004 H   0  0  0  0  0  0  0  0  0  0  0  0
   -1.8874    3.0443    0.0004 H   0  0  0  0  0  0  0  0  0  0  0  0
  1  2  2  0  0  0  0
  2  3  1  0  0  0  0
  3  4  2  0  0  0  0
  4  5  1  0  0  0  0
  5  6  1  0  0  0  0
  6  7  2  0  0  0  0
  7  8  1  0  0  0  0
  8  9  2  0  0  0  0
  9 10  1  0  0  0  0
 10 11  2  0  0  0  0
 11 12  1  0  0  0  0
 12 13  2  0  0  0  0
 13 14  1  0  0  0  0
  9 14  1  0  0  0  0
 14 15  2  0  0  0  0
  6 15  1  0  0  0  0
 15 16  1  0  0  0  0
 16 17  2  0  0  0  0
 17 18  1  0  0  0  0
  1 18  1  0  0  0  0
  5 18  2  0  0  0  0
  1 19  1  0  0  0  0
  2 20  1  0  0  0  0
  3 21  1  0  0  0  0
  4 22  1  0  0  0  0
  7 23  1  0  0  0  0
  8 24  1  0  0  0  0
 10 25  1  0  0  0  0
 11 26  1  0  0  0  0
 12 27  1  0  0  0  0
 13 28  1  0  0  0  0
 16 29  1  0  0  0  0
 17 30  1  0  0  0  0
M  END
$$$$
