C18H10
APtclcactv01171906243D 0   0.00000     0.00000
 
 28 32  0  0  0  0  0  0  0  0999 V2000
   -1.7574   -2.3771   -0.0001 C   0  0  0  0  0  0  0  0  0  0  0  0
   -2.8325   -1.5206    0.0003 C   0  0  0  0  0  0  0  0  0  0  0  0
   -2.6544   -0.1303    0.0002 C   0  0  0  0  0  0  0  0  0  0  0  0
   -1.3332    0.3117   -0.0003 C   0  0  0  0  0  0  0  0  0  0  0  0
   -1.2569    1.7635   -0.0007 C   0  0  0  0  0  0  0  0  0  0  0  0
    0.0104    2.3168   -0.0011 C   0  0  0  0  0  0  0  0  0  0  0  0
    1.1560    1.4797   -0.0002 C   0  0  0  0  0  0  0  0  0  0  0  0
    2.4519    2.0179    0.0001 C   0  0  0  0  0  0  0  0  0  0  0  0
    3.5496    1.1797    0.0009 C   0  0  0  0  0  0  0  0  0  0  0  0
    3.4318   -0.1983    0.0007 C   0  0  0  0  0  0  0  0  0  0  0  0
    2.1631   -0.7864   -0.0000 C   0  0  0  0  0  0  0  0  0  0  0  0
    1.9584   -2.1862   -0.0002 C   0  0  0  0  0  0  0  0  0  0  0  0
    0.7161   -2.7388   -0.0009 C   0  0  0  0  0  0  0  0  0  0  0  0
   -0.4329   -1.9206    0.0003 C   0  0  0  0  0  0  0  0  0  0  0  0
   -0.2334   -0.5200   -0.0003 C   0  0  0  0  0  0  0  0  0  0  0  0
    1.0398    0.0685   -0.0000 C   0  0  0  0  0  0  0  0  0  0  0  0
   -2.6570    2.1878    0.0003 C   0  0  0  0  0  0  0  0  0  0  0  0
   -3.4609    1.0877    0.0008 C   0  0  0  0  0  0  0  0  0  0  0  0
   -1.9406   -3.4415    0.0039 H   0  0  0  0  0  0  0  0  0  0  0  0
   -3.8333   -1.9266    0.0003 H   0  0  0  0  0  0  0  0  0  0  0  0
    0.1286    3.3903   -0.0025 H   0  0  0  0  0  0  0  0  0  0  0  0
    2.5911    3.0889   -0.0007 H   0  0  0  0  0  0  0  0  0  0  0  0
    4.5371    1.6168    0.0014 H   0  0  0  0  0  0  0  0  0  0  0  0
    4.3164   -0.8178    0.0008 H   0  0  0  0  0  0  0  0  0  0  0  0
    2.8190   -2.8387   -0.0003 H   0  0  0  0  0  0  0  0  0  0  0  0
    0.6082   -3.8134   -0.0020 H   0  0  0  0  0  0  0  0  0  0  0  0
   -2.9996    3.2120    0.0009 H   0  0  0  0  0  0  0  0  0  0  0  0
   -4.5406    1.1126    0.0012 H   0  0  0  0  0  0  0  0  0  0  0  0
  1  2  2  0  0  0  0
  2  3  1  0  0  0  0
  3  4  2  0  0  0  0
  4  5  1  0  0  0  0
  5  6  2  0  0  0  0
  6  7  1  0  0  0  0
  7  8  2  0  0  0  0
  8  9  1  0  0  0  0
  9 10  2  0  0  0  0
 10 11  1  0  0  0  0
 11 12  2  0  0  0  0
 12 13  1  0  0  0  0
 13 14  2  0  0  0  0
  1 14  1  0  0  0  0
 14 15  1  0  0  0  0
  4 15  1  0  0  0  0
 15 16  2  0  0  0  0
  7 16  1  0  0  0  0
 11 16  1  0  0  0  0
  5 17  1  0  0  0  0
 17 18  2  0  0  0  0
  3 18  1  0  0  0  0
  1 19  1  0  0  0  0
  2 20  1  0  0  0  0
  6 21  1  0  0  0  0
  8 22  1  0  0  0  0
  9 23  1  0  0  0  0
 10 24  1  0  0  0  0
 12 25  1  0  0  0  0
 13 26  1  0  0  0  0
 17 27  1  0  0  0  0
 18 28  1  0  0  0  0
M  END
$$$$
