C24H14
APtclcactv01171906243D 0   0.00000     0.00000
 
 38 43  0  0  0  0  0  0  0  0999 V2000
   -3.0968   -2.5308   -0.0128 C   0  0  0  0  0  0  0  0  0  0  0  0
   -4.4655   -2.4844   -0.0147 C   0  0  0  0  0  0  0  0  0  0  0  0
   -5.1880   -1.2940   -0.0087 C   0  0  0  0  0  0  0  0  0  0  0  0
   -4.5142   -0.0781   -0.0004 C   0  0  0  0  0  0  0  0  0  0  0  0
   -3.1117   -0.1365    0.0009 C   0  0  0  0  0  0  0  0  0  0  0  0
   -2.5650    1.1468    0.0061 C   0  0  0  0  0  0  0  0  0  0  0  0
   -1.1570    1.2379    0.0040 C   0  0  0  0  0  0  0  0  0  0  0  0
   -0.5338    2.5028    0.0008 C   0  0  0  0  0  0  0  0  0  0  0  0
    0.8055    2.6542   -0.0036 C   0  0  0  0  0  0  0  0  0  0  0  0
    1.6841    1.4860   -0.0028 C   0  0  0  0  0  0  0  0  0  0  0  0
    3.0660    1.6314   -0.0123 C   0  0  0  0  0  0  0  0  0  0  0  0
    3.8784    0.4939   -0.0078 C   0  0  0  0  0  0  0  0  0  0  0  0
    5.2837    0.6013   -0.0200 C   0  0  0  0  0  0  0  0  0  0  0  0
    6.0423   -0.5263   -0.0113 C   0  0  0  0  0  0  0  0  0  0  0  0
    5.4666   -1.7951    0.0094 C   0  0  0  0  0  0  0  0  0  0  0  0
    4.1181   -1.9670    0.0205 C   0  0  0  0  0  0  0  0  0  0  0  0
    3.2738   -0.8399    0.0104 C   0  0  0  0  0  0  0  0  0  0  0  0
    1.8809   -0.9781    0.0155 C   0  0  0  0  0  0  0  0  0  0  0  0
    1.0833    0.1514    0.0072 C   0  0  0  0  0  0  0  0  0  0  0  0
   -0.3879    0.0430    0.0048 C   0  0  0  0  0  0  0  0  0  0  0  0
   -0.9758   -1.2208    0.0008 C   0  0  0  0  0  0  0  0  0  0  0  0
   -2.3733   -1.3237   -0.0040 C   0  0  0  0  0  0  0  0  0  0  0  0
   -3.6971    2.0676    0.0118 C   0  0  0  0  0  0  0  0  0  0  0  0
   -4.8520    1.3448    0.0084 C   0  0  0  0  0  0  0  0  0  0  0  0
   -2.5805   -3.4794   -0.0135 H   0  0  0  0  0  0  0  0  0  0  0  0
   -5.0111   -3.4164   -0.0216 H   0  0  0  0  0  0  0  0  0  0  0  0
   -6.2677   -1.3153   -0.0108 H   0  0  0  0  0  0  0  0  0  0  0  0
   -1.1549    3.3863    0.0016 H   0  0  0  0  0  0  0  0  0  0  0  0
    1.2327    3.6461   -0.0082 H   0  0  0  0  0  0  0  0  0  0  0  0
    3.5091    2.6162   -0.0234 H   0  0  0  0  0  0  0  0  0  0  0  0
    5.7545    1.5732   -0.0365 H   0  0  0  0  0  0  0  0  0  0  0  0
    7.1185   -0.4367   -0.0211 H   0  0  0  0  0  0  0  0  0  0  0  0
    6.1080   -2.6640    0.0165 H   0  0  0  0  0  0  0  0  0  0  0  0
    3.6970   -2.9614    0.0365 H   0  0  0  0  0  0  0  0  0  0  0  0
    1.4321   -1.9604    0.0257 H   0  0  0  0  0  0  0  0  0  0  0  0
   -0.3620   -2.1094    0.0003 H   0  0  0  0  0  0  0  0  0  0  0  0
   -3.6304    3.1455    0.0174 H   0  0  0  0  0  0  0  0  0  0  0  0
   -5.8512    1.7547    0.0113 H   0  0  0  0  0  0  0  0  0  0  0  0
  1  2  2  0  0  0  0
  2  3  1  0  0  0  0
  3  4  2  0  0  0  0
  4  5  1  0  0  0  0
  5  6  2  0  0  0  0
  6  7  1  0  0  0  0
  7  8  2  0  0  0  0
  8  9  1  0  0  0  0
  9 10  2  0  0  0  0
 10 11  1  0  0  0  0
 11 12  2  0  0  0  0
 12 13  1  0  0  0  0
 13 14  2  0  0  0  0
 14 15  1  0  0  0  0
 15 16  2  0  0  0  0
 16 17  1  0  0  0  0
 12 17  1  0  0  0  0
 17 18  2  0  0  0  0
 18 19  1  0  0  0  0
 10 19  1  0  0  0  0
 19 20  2  0  0  0  0
  7 20  1  0  0  0  0
 20 21  1  0  0  0  0
 21 22  2  0  0  0  0
  1 22  1  0  0  0  0
  5 22  1  0  0  0  0
  6 23  1  0  0  0  0
 23 24  2  0  0  0  0
  4 24  1  0  0  0  0
  1 25  1  0  0  0  0
  2 26  1  0  0  0  0
  3 27  1  0  0  0  0
  8 28  1  0  0  0  0
  9 29  1  0  0  0  0
 11 30  1  0  0  0  0
 13 31  1  0  0  0  0
 14 32  1  0  0  0  0
 15 33  1  0  0  0  0
 16 34  1  0  0  0  0
 18 35  1  0  0  0  0
 21 36  1  0  0  0  0
 23 37  1  0  0  0  0
 24 38  1  0  0  0  0
M  END
$$$$
