C12H8
APtclcactv01171906243D 0   0.00000     0.00000
 
 20 22  0  0  0  0  0  0  0  0999 V2000
    0.6614   -2.3198    0.0001 C   0  0  0  0  0  0  0  0  0  0  0  0
   -0.6615   -2.3198   -0.0004 C   0  0  0  0  0  0  0  0  0  0  0  0
   -1.1832   -0.9479   -0.0003 C   0  0  0  0  0  0  0  0  0  0  0  0
   -0.0000   -0.0893    0.0002 C   0  0  0  0  0  0  0  0  0  0  0  0
    1.1832   -0.9479    0.0004 C   0  0  0  0  0  0  0  0  0  0  0  0
    2.3495   -0.3411    0.0002 C   0  0  0  0  0  0  0  0  0  0  0  0
    2.3998    1.1355   -0.0004 C   0  0  0  0  0  0  0  0  0  0  0  0
    1.3050    1.8797   -0.0004 C   0  0  0  0  0  0  0  0  0  0  0  0
    0.0000    1.2002   -0.0001 C   0  0  0  0  0  0  0  0  0  0  0  0
   -1.3050    1.8797    0.0003 C   0  0  0  0  0  0  0  0  0  0  0  0
   -2.3998    1.1355    0.0005 C   0  0  0  0  0  0  0  0  0  0  0  0
   -2.3495   -0.3411   -0.0005 C   0  0  0  0  0  0  0  0  0  0  0  0
    1.2745   -3.2090    0.0043 H   0  0  0  0  0  0  0  0  0  0  0  0
   -1.2745   -3.2090   -0.0009 H   0  0  0  0  0  0  0  0  0  0  0  0
    3.2631   -0.9171    0.0007 H   0  0  0  0  0  0  0  0  0  0  0  0
    3.3628    1.6244   -0.0004 H   0  0  0  0  0  0  0  0  0  0  0  0
    1.3682    2.9578   -0.0004 H   0  0  0  0  0  0  0  0  0  0  0  0
   -1.3682    2.9578    0.0008 H   0  0  0  0  0  0  0  0  0  0  0  0
   -3.3628    1.6244    0.0007 H   0  0  0  0  0  0  0  0  0  0  0  0
   -3.2631   -0.9171   -0.0004 H   0  0  0  0  0  0  0  0  0  0  0  0
  1  2  2  0  0  0  0
  2  3  1  0  0  0  0
  3  4  1  0  0  0  0
  4  5  1  0  0  0  0
  1  5  1  0  0  0  0
  5  6  2  0  0  0  0
  6  7  1  0  0  0  0
  7  8  2  0  0  0  0
  8  9  1  0  0  0  0
  4  9  2  0  0  0  0
  9 10  1  0  0  0  0
 10 11  2  0  0  0  0
 11 12  1  0  0  0  0
  3 12  2  0  0  0  0
  1 13  1  0  0  0  0
  2 14  1  0  0  0  0
  6 15  1  0  0  0  0
  7 16  1  0  0  0  0
  8 17  1  0  0  0  0
 10 18  1  0  0  0  0
 11 19  1  0  0  0  0
 12 20  1  0  0  0  0
M  END
$$$$
