C24H14
APtclcactv01171906243D 0   0.00000     0.00000
 
 38 43  0  0  0  0  0  0  0  0999 V2000
   -3.3249   -2.5577    0.0020 C   0  0  0  0  0  0  0  0  0  0  0  0
   -4.6847   -2.5522    0.0071 C   0  0  0  0  0  0  0  0  0  0  0  0
   -5.3975   -1.3549    0.0093 C   0  0  0  0  0  0  0  0  0  0  0  0
   -4.7490   -0.1568    0.0052 C   0  0  0  0  0  0  0  0  0  0  0  0
   -3.3488   -0.1211    0.0005 C   0  0  0  0  0  0  0  0  0  0  0  0
   -2.6491    1.1106   -0.0027 C   0  0  0  0  0  0  0  0  0  0  0  0
   -1.2624    1.0310   -0.0036 C   0  0  0  0  0  0  0  0  0  0  0  0
   -0.6885    2.3689   -0.0030 C   0  0  0  0  0  0  0  0  0  0  0  0
    0.6834    2.4907   -0.0007 C   0  0  0  0  0  0  0  0  0  0  0  0
    1.5138    1.3398   -0.0002 C   0  0  0  0  0  0  0  0  0  0  0  0
    2.8997    1.5021    0.0074 C   0  0  0  0  0  0  0  0  0  0  0  0
    3.7328    0.3815    0.0060 C   0  0  0  0  0  0  0  0  0  0  0  0
    5.1359    0.5150    0.0157 C   0  0  0  0  0  0  0  0  0  0  0  0
    5.9155   -0.5989    0.0110 C   0  0  0  0  0  0  0  0  0  0  0  0
    5.3640   -1.8777   -0.0038 C   0  0  0  0  0  0  0  0  0  0  0  0
    4.0179   -2.0745   -0.0128 C   0  0  0  0  0  0  0  0  0  0  0  0
    3.1541   -0.9640   -0.0061 C   0  0  0  0  0  0  0  0  0  0  0  0
    1.7628   -1.1251   -0.0108 C   0  0  0  0  0  0  0  0  0  0  0  0
    0.9441   -0.0145   -0.0064 C   0  0  0  0  0  0  0  0  0  0  0  0
   -0.5224   -0.1526   -0.0041 C   0  0  0  0  0  0  0  0  0  0  0  0
   -1.2056   -1.3556   -0.0022 C   0  0  0  0  0  0  0  0  0  0  0  0
   -2.6162   -1.3395   -0.0002 C   0  0  0  0  0  0  0  0  0  0  0  0
   -1.8416    3.2735   -0.0046 C   0  0  0  0  0  0  0  0  0  0  0  0
   -2.9809    2.5304   -0.0049 C   0  0  0  0  0  0  0  0  0  0  0  0
   -2.7884   -3.4950    0.0042 H   0  0  0  0  0  0  0  0  0  0  0  0
   -5.2203   -3.4900    0.0091 H   0  0  0  0  0  0  0  0  0  0  0  0
   -6.4773   -1.3769    0.0139 H   0  0  0  0  0  0  0  0  0  0  0  0
   -5.3136    0.7639    0.0053 H   0  0  0  0  0  0  0  0  0  0  0  0
    1.1322    3.4730    0.0002 H   0  0  0  0  0  0  0  0  0  0  0  0
    3.3277    2.4937    0.0140 H   0  0  0  0  0  0  0  0  0  0  0  0
    5.5886    1.4954    0.0265 H   0  0  0  0  0  0  0  0  0  0  0  0
    6.9899   -0.4892    0.0184 H   0  0  0  0  0  0  0  0  0  0  0  0
    6.0214   -2.7346   -0.0085 H   0  0  0  0  0  0  0  0  0  0  0  0
    3.6150   -3.0765   -0.0251 H   0  0  0  0  0  0  0  0  0  0  0  0
    1.3321   -2.1155   -0.0194 H   0  0  0  0  0  0  0  0  0  0  0  0
   -0.6676   -2.2920   -0.0030 H   0  0  0  0  0  0  0  0  0  0  0  0
   -1.7945    4.3525   -0.0050 H   0  0  0  0  0  0  0  0  0  0  0  0
   -3.9832    2.9326   -0.0072 H   0  0  0  0  0  0  0  0  0  0  0  0
  1  2  2  0  0  0  0
  2  3  1  0  0  0  0
  3  4  2  0  0  0  0
  4  5  1  0  0  0  0
  5  6  1  0  0  0  0
  6  7  2  0  0  0  0
  7  8  1  0  0  0  0
  8  9  2  0  0  0  0
  9 10  1  0  0  0  0
 10 11  2  0  0  0  0
 11 12  1  0  0  0  0
 12 13  2  0  0  0  0
 13 14  1  0  0  0  0
 14 15  2  0  0  0  0
 15 16  1  0  0  0  0
 16 17  2  0  0  0  0
 12 17  1  0  0  0  0
 17 18  1  0  0  0  0
 18 19  2  0  0  0  0
 10 19  1  0  0  0  0
 19 20  1  0  0  0  0
  7 20  1  0  0  0  0
 20 21  2  0  0  0  0
 21 22  1  0  0  0  0
  1 22  1  0  0  0  0
  5 22  2  0  0  0  0
  8 23  1  0  0  0  0
 23 24  2  0  0  0  0
  6 24  1  0  0  0  0
  1 25  1  0  0  0  0
  2 26  1  0  0  0  0
  3 27  1  0  0  0  0
  4 28  1  0  0  0  0
  9 29  1  0  0  0  0
 11 30  1  0  0  0  0
 13 31  1  0  0  0  0
 14 32  1  0  0  0  0
 15 33  1  0  0  0  0
 16 34  1  0  0  0  0
 18 35  1  0  0  0  0
 21 36  1  0  0  0  0
 23 37  1  0  0  0  0
 24 38  1  0  0  0  0
M  END
$$$$
