C24H14
APtclcactv01171906243D 0   0.00000     0.00000
 
 38 43  0  0  0  0  0  0  0  0999 V2000
   -2.7974   -2.3846   -0.0056 C   0  0  0  0  0  0  0  0  0  0  0  0
   -4.1634   -2.3470   -0.0154 C   0  0  0  0  0  0  0  0  0  0  0  0
   -4.5877   -0.9517   -0.0122 C   0  0  0  0  0  0  0  0  0  0  0  0
   -5.7495   -0.1928   -0.0169 C   0  0  0  0  0  0  0  0  0  0  0  0
   -5.6753    1.1973   -0.0094 C   0  0  0  0  0  0  0  0  0  0  0  0
   -4.5127    1.9162    0.0019 C   0  0  0  0  0  0  0  0  0  0  0  0
   -3.2768    1.2350    0.0051 C   0  0  0  0  0  0  0  0  0  0  0  0
   -2.0202    1.8349    0.0135 C   0  0  0  0  0  0  0  0  0  0  0  0
   -0.8631    1.0277    0.0124 C   0  0  0  0  0  0  0  0  0  0  0  0
    0.3920    1.6483    0.0095 C   0  0  0  0  0  0  0  0  0  0  0  0
    1.5570    0.8763    0.0072 C   0  0  0  0  0  0  0  0  0  0  0  0
    2.8135    1.4994   -0.0032 C   0  0  0  0  0  0  0  0  0  0  0  0
    3.9674    0.7253   -0.0064 C   0  0  0  0  0  0  0  0  0  0  0  0
    5.2472    1.3244   -0.0207 C   0  0  0  0  0  0  0  0  0  0  0  0
    6.3538    0.5397   -0.0222 C   0  0  0  0  0  0  0  0  0  0  0  0
    6.2661   -0.8538   -0.0086 C   0  0  0  0  0  0  0  0  0  0  0  0
    5.0698   -1.4937    0.0058 C   0  0  0  0  0  0  0  0  0  0  0  0
    3.8753   -0.7400    0.0058 C   0  0  0  0  0  0  0  0  0  0  0  0
    2.6328   -1.3644    0.0158 C   0  0  0  0  0  0  0  0  0  0  0  0
    1.4665   -0.5909    0.0151 C   0  0  0  0  0  0  0  0  0  0  0  0
    0.2090   -1.2116    0.0174 C   0  0  0  0  0  0  0  0  0  0  0  0
   -0.9431   -0.4441    0.0129 C   0  0  0  0  0  0  0  0  0  0  0  0
   -2.2641   -1.0796    0.0027 C   0  0  0  0  0  0  0  0  0  0  0  0
   -3.3423   -0.2077   -0.0007 C   0  0  0  0  0  0  0  0  0  0  0  0
   -2.2077   -3.2894   -0.0003 H   0  0  0  0  0  0  0  0  0  0  0  0
   -4.8183   -3.2057   -0.0244 H   0  0  0  0  0  0  0  0  0  0  0  0
   -6.7126   -0.6814   -0.0268 H   0  0  0  0  0  0  0  0  0  0  0  0
   -6.6043    1.7481   -0.0132 H   0  0  0  0  0  0  0  0  0  0  0  0
   -4.5398    2.9959    0.0079 H   0  0  0  0  0  0  0  0  0  0  0  0
   -1.9319    2.9113    0.0204 H   0  0  0  0  0  0  0  0  0  0  0  0
    0.4600    2.7262    0.0087 H   0  0  0  0  0  0  0  0  0  0  0  0
    2.8840    2.5771   -0.0091 H   0  0  0  0  0  0  0  0  0  0  0  0
    5.3436    2.4001   -0.0309 H   0  0  0  0  0  0  0  0  0  0  0  0
    7.3283    1.0051   -0.0345 H   0  0  0  0  0  0  0  0  0  0  0  0
    7.1746   -1.4377   -0.0099 H   0  0  0  0  0  0  0  0  0  0  0  0
    5.0311   -2.5729    0.0175 H   0  0  0  0  0  0  0  0  0  0  0  0
    2.5680   -2.4425    0.0249 H   0  0  0  0  0  0  0  0  0  0  0  0
    0.1393   -2.2894    0.0224 H   0  0  0  0  0  0  0  0  0  0  0  0
  1  2  2  0  0  0  0
  2  3  1  0  0  0  0
  3  4  1  0  0  0  0
  4  5  2  0  0  0  0
  5  6  1  0  0  0  0
  6  7  2  0  0  0  0
  7  8  1  0  0  0  0
  8  9  2  0  0  0  0
  9 10  1  0  0  0  0
 10 11  2  0  0  0  0
 11 12  1  0  0  0  0
 12 13  2  0  0  0  0
 13 14  1  0  0  0  0
 14 15  2  0  0  0  0
 15 16  1  0  0  0  0
 16 17  2  0  0  0  0
 17 18  1  0  0  0  0
 13 18  1  0  0  0  0
 18 19  2  0  0  0  0
 19 20  1  0  0  0  0
 11 20  1  0  0  0  0
 20 21  2  0  0  0  0
 21 22  1  0  0  0  0
  9 22  1  0  0  0  0
 22 23  2  0  0  0  0
  1 23  1  0  0  0  0
 23 24  1  0  0  0  0
  3 24  2  0  0  0  0
  7 24  1  0  0  0  0
  1 25  1  0  0  0  0
  2 26  1  0  0  0  0
  4 27  1  0  0  0  0
  5 28  1  0  0  0  0
  6 29  1  0  0  0  0
  8 30  1  0  0  0  0
 10 31  1  0  0  0  0
 12 32  1  0  0  0  0
 14 33  1  0  0  0  0
 15 34  1  0  0  0  0
 16 35  1  0  0  0  0
 17 36  1  0  0  0  0
 19 37  1  0  0  0  0
 21 38  1  0  0  0  0
M  END
$$$$
