C20H12
APtclcactv01171906243D 0   0.00000     0.00000
 
 32 36  0  0  0  0  0  0  0  0999 V2000
   -2.2534   -2.0896   -0.0146 C   0  0  0  0  0  0  0  0  0  0  0  0
   -3.6288   -1.9381   -0.0247 C   0  0  0  0  0  0  0  0  0  0  0  0
   -4.2572   -0.6978   -0.0203 C   0  0  0  0  0  0  0  0  0  0  0  0
   -3.4893    0.4632   -0.0056 C   0  0  0  0  0  0  0  0  0  0  0  0
   -2.1027    0.2845    0.0021 C   0  0  0  0  0  0  0  0  0  0  0  0
   -1.4327    1.5706    0.0131 C   0  0  0  0  0  0  0  0  0  0  0  0
   -0.0502    1.5616    0.0169 C   0  0  0  0  0  0  0  0  0  0  0  0
    0.6573    0.3460    0.0105 C   0  0  0  0  0  0  0  0  0  0  0  0
    2.1261    0.3633    0.0003 C   0  0  0  0  0  0  0  0  0  0  0  0
    2.8351    1.5671   -0.0185 C   0  0  0  0  0  0  0  0  0  0  0  0
    4.2002    1.5472   -0.0273 C   0  0  0  0  0  0  0  0  0  0  0  0
    4.8947    0.3424   -0.0164 C   0  0  0  0  0  0  0  0  0  0  0  0
    4.2315   -0.8486    0.0017 C   0  0  0  0  0  0  0  0  0  0  0  0
    2.8277   -0.8630    0.0087 C   0  0  0  0  0  0  0  0  0  0  0  0
    2.1147   -2.0810    0.0218 C   0  0  0  0  0  0  0  0  0  0  0  0
    0.7614   -2.0970    0.0228 C   0  0  0  0  0  0  0  0  0  0  0  0
    0.0096   -0.9121    0.0117 C   0  0  0  0  0  0  0  0  0  0  0  0
   -1.4533   -0.9434   -0.0006 C   0  0  0  0  0  0  0  0  0  0  0  0
   -2.5146    2.5584    0.0165 C   0  0  0  0  0  0  0  0  0  0  0  0
   -3.7080    1.9099    0.0054 C   0  0  0  0  0  0  0  0  0  0  0  0
   -1.8072   -3.0732   -0.0131 H   0  0  0  0  0  0  0  0  0  0  0  0
   -4.2437   -2.8259   -0.0370 H   0  0  0  0  0  0  0  0  0  0  0  0
   -5.3353   -0.6355   -0.0286 H   0  0  0  0  0  0  0  0  0  0  0  0
    0.4911    2.4961    0.0246 H   0  0  0  0  0  0  0  0  0  0  0  0
    2.3059    2.5085   -0.0263 H   0  0  0  0  0  0  0  0  0  0  0  0
    4.7472    2.4783   -0.0432 H   0  0  0  0  0  0  0  0  0  0  0  0
    5.9747    0.3503   -0.0228 H   0  0  0  0  0  0  0  0  0  0  0  0
    4.7835   -1.7768    0.0111 H   0  0  0  0  0  0  0  0  0  0  0  0
    2.6574   -3.0147    0.0309 H   0  0  0  0  0  0  0  0  0  0  0  0
    0.2467   -3.0464    0.0306 H   0  0  0  0  0  0  0  0  0  0  0  0
   -2.3842    3.6304    0.0264 H   0  0  0  0  0  0  0  0  0  0  0  0
   -4.6751    2.3909    0.0043 H   0  0  0  0  0  0  0  0  0  0  0  0
  1  2  2  0  0  0  0
  2  3  1  0  0  0  0
  3  4  2  0  0  0  0
  4  5  1  0  0  0  0
  5  6  2  0  0  0  0
  6  7  1  0  0  0  0
  7  8  2  0  0  0  0
  8  9  1  0  0  0  0
  9 10  1  0  0  0  0
 10 11  2  0  0  0  0
 11 12  1  0  0  0  0
 12 13  2  0  0  0  0
 13 14  1  0  0  0  0
  9 14  2  0  0  0  0
 14 15  1  0  0  0  0
 15 16  2  0  0  0  0
 16 17  1  0  0  0  0
  8 17  1  0  0  0  0
 17 18  2  0  0  0  0
  1 18  1  0  0  0  0
  5 18  1  0  0  0  0
  6 19  1  0  0  0  0
 19 20  2  0  0  0  0
  4 20  1  0  0  0  0
  1 21  1  0  0  0  0
  2 22  1  0  0  0  0
  3 23  1  0  0  0  0
  7 24  1  0  0  0  0
 10 25  1  0  0  0  0
 11 26  1  0  0  0  0
 12 27  1  0  0  0  0
 13 28  1  0  0  0  0
 15 29  1  0  0  0  0
 16 30  1  0  0  0  0
 19 31  1  0  0  0  0
 20 32  1  0  0  0  0
M  END
$$$$
