C32H18
APtclcactv01171906273D 0   0.00000     0.00000
 
 50 57  0  0  0  0  0  0  0  0999 V2000
   -1.5145   -2.7524   -0.0015 C   0  0  0  0  0  0  0  0  0  0  0  0
   -2.7773   -3.3215   -0.0012 C   0  0  0  0  0  0  0  0  0  0  0  0
   -3.9097   -2.5331   -0.0001 C   0  0  0  0  0  0  0  0  0  0  0  0
   -3.7944   -1.1419    0.0002 C   0  0  0  0  0  0  0  0  0  0  0  0
   -4.9762   -0.2713    0.0002 C   0  0  0  0  0  0  0  0  0  0  0  0
   -6.2634   -0.8122   -0.0002 C   0  0  0  0  0  0  0  0  0  0  0  0
   -7.3559    0.0246   -0.0006 C   0  0  0  0  0  0  0  0  0  0  0  0
   -7.1900    1.4053   -0.0006 C   0  0  0  0  0  0  0  0  0  0  0  0
   -5.9457    1.9603   -0.0002 C   0  0  0  0  0  0  0  0  0  0  0  0
   -4.8069    1.1337    0.0002 C   0  0  0  0  0  0  0  0  0  0  0  0
   -3.5204    1.7038    0.0002 C   0  0  0  0  0  0  0  0  0  0  0  0
   -2.3829    0.9087    0.0005 C   0  0  0  0  0  0  0  0  0  0  0  0
   -1.0976    1.5029    0.0007 C   0  0  0  0  0  0  0  0  0  0  0  0
    0.0420    0.7371    0.0007 C   0  0  0  0  0  0  0  0  0  0  0  0
    1.3730    1.3733    0.0005 C   0  0  0  0  0  0  0  0  0  0  0  0
    2.5165    0.5528    0.0006 C   0  0  0  0  0  0  0  0  0  0  0  0
    3.7957    1.1422    0.0002 C   0  0  0  0  0  0  0  0  0  0  0  0
    4.9760    0.2697    0.0002 C   0  0  0  0  0  0  0  0  0  0  0  0
    6.2642    0.8081   -0.0009 C   0  0  0  0  0  0  0  0  0  0  0  0
    7.3551   -0.0307   -0.0013 C   0  0  0  0  0  0  0  0  0  0  0  0
    7.1876   -1.4110   -0.0007 C   0  0  0  0  0  0  0  0  0  0  0  0
    5.9422   -1.9636   -0.0001 C   0  0  0  0  0  0  0  0  0  0  0  0
    4.8051   -1.1350    0.0008 C   0  0  0  0  0  0  0  0  0  0  0  0
    3.5179   -1.7028    0.0009 C   0  0  0  0  0  0  0  0  0  0  0  0
    2.3818   -0.9060    0.0018 C   0  0  0  0  0  0  0  0  0  0  0  0
    1.0965   -1.4992    0.0011 C   0  0  0  0  0  0  0  0  0  0  0  0
   -0.0420   -0.7321    0.0015 C   0  0  0  0  0  0  0  0  0  0  0  0
   -1.3721   -1.3696   -0.0007 C   0  0  0  0  0  0  0  0  0  0  0  0
   -2.5163   -0.5504   -0.0000 C   0  0  0  0  0  0  0  0  0  0  0  0
    3.9126    2.5330   -0.0007 C   0  0  0  0  0  0  0  0  0  0  0  0
    2.7812    3.3229   -0.0012 C   0  0  0  0  0  0  0  0  0  0  0  0
    1.5176    2.7555    0.0005 C   0  0  0  0  0  0  0  0  0  0  0  0
   -0.6386   -3.3842    0.0022 H   0  0  0  0  0  0  0  0  0  0  0  0
   -2.8770   -4.3969   -0.0021 H   0  0  0  0  0  0  0  0  0  0  0  0
   -4.8869   -2.9931    0.0001 H   0  0  0  0  0  0  0  0  0  0  0  0
   -6.4011   -1.8834   -0.0005 H   0  0  0  0  0  0  0  0  0  0  0  0
   -8.3511   -0.3947   -0.0013 H   0  0  0  0  0  0  0  0  0  0  0  0
   -8.0592    2.0463   -0.0013 H   0  0  0  0  0  0  0  0  0  0  0  0
   -5.8335    3.0344   -0.0005 H   0  0  0  0  0  0  0  0  0  0  0  0
   -3.4165    2.7788   -0.0004 H   0  0  0  0  0  0  0  0  0  0  0  0
   -1.0120    2.5795    0.0006 H   0  0  0  0  0  0  0  0  0  0  0  0
    6.4040    1.8790   -0.0017 H   0  0  0  0  0  0  0  0  0  0  0  0
    8.3510    0.3871   -0.0025 H   0  0  0  0  0  0  0  0  0  0  0  0
    8.0558   -2.0534   -0.0011 H   0  0  0  0  0  0  0  0  0  0  0  0
    5.8279   -3.0375   -0.0000 H   0  0  0  0  0  0  0  0  0  0  0  0
    3.4121   -2.7776    0.0000 H   0  0  0  0  0  0  0  0  0  0  0  0
    1.0099   -2.5757    0.0006 H   0  0  0  0  0  0  0  0  0  0  0  0
    4.8903    2.9918   -0.0006 H   0  0  0  0  0  0  0  0  0  0  0  0
    2.8823    4.3982   -0.0019 H   0  0  0  0  0  0  0  0  0  0  0  0
    0.6427    3.3887    0.0000 H   0  0  0  0  0  0  0  0  0  0  0  0
  1  2  2  0  0  0  0
  2  3  1  0  0  0  0
  3  4  2  0  0  0  0
  4  5  1  0  0  0  0
  5  6  1  0  0  0  0
  6  7  2  0  0  0  0
  7  8  1  0  0  0  0
  8  9  2  0  0  0  0
  9 10  1  0  0  0  0
  5 10  2  0  0  0  0
 10 11  1  0  0  0  0
 11 12  2  0  0  0  0
 12 13  1  0  0  0  0
 13 14  2  0  0  0  0
 14 15  1  0  0  0  0
 15 16  2  0  0  0  0
 16 17  1  0  0  0  0
 17 18  1  0  0  0  0
 18 19  1  0  0  0  0
 19 20  2  0  0  0  0
 20 21  1  0  0  0  0
 21 22  2  0  0  0  0
 22 23  1  0  0  0  0
 18 23  2  0  0  0  0
 23 24  1  0  0  0  0
 24 25  2  0  0  0  0
 16 25  1  0  0  0  0
 25 26  1  0  0  0  0
 26 27  2  0  0  0  0
 14 27  1  0  0  0  0
 27 28  1  0  0  0  0
  1 28  1  0  0  0  0
 28 29  2  0  0  0  0
  4 29  1  0  0  0  0
 12 29  1  0  0  0  0
 17 30  2  0  0  0  0
 30 31  1  0  0  0  0
 31 32  2  0  0  0  0
 15 32  1  0  0  0  0
  1 33  1  0  0  0  0
  2 34  1  0  0  0  0
  3 35  1  0  0  0  0
  6 36  1  0  0  0  0
  7 37  1  0  0  0  0
  8 38  1  0  0  0  0
  9 39  1  0  0  0  0
 11 40  1  0  0  0  0
 13 41  1  0  0  0  0
 19 42  1  0  0  0  0
 20 43  1  0  0  0  0
 21 44  1  0  0  0  0
 22 45  1  0  0  0  0
 24 46  1  0  0  0  0
 26 47  1  0  0  0  0
 30 48  1  0  0  0  0
 31 49  1  0  0  0  0
 32 50  1  0  0  0  0
M  END
$$$$
