C36H20
APtclcactv01171906263D 0   0.00000     0.00000
 
 56 64  0  0  0  0  0  0  0  0999 V2000
   -2.5704   -3.4761    0.1747 C   0  0  0  0  0  0  0  0  0  0  0  0
   -3.7770   -4.1322    0.2808 C   0  0  0  0  0  0  0  0  0  0  0  0
   -4.9649   -3.4171    0.2962 C   0  0  0  0  0  0  0  0  0  0  0  0
   -4.9524   -2.0477    0.1830 C   0  0  0  0  0  0  0  0  0  0  0  0
   -3.7428   -1.3733    0.0322 C   0  0  0  0  0  0  0  0  0  0  0  0
   -3.7181    0.0861   -0.1944 C   0  0  0  0  0  0  0  0  0  0  0  0
   -2.4842    0.7421   -0.3794 C   0  0  0  0  0  0  0  0  0  0  0  0
   -1.2226    0.0445   -0.1044 C   0  0  0  0  0  0  0  0  0  0  0  0
   -0.0028    0.7135    0.0756 C   0  0  0  0  0  0  0  0  0  0  0  0
    0.0800    2.1596    0.3523 C   0  0  0  0  0  0  0  0  0  0  0  0
    1.2952    2.8404    0.1565 C   0  0  0  0  0  0  0  0  0  0  0  0
    2.5388    2.0869   -0.0578 C   0  0  0  0  0  0  0  0  0  0  0  0
    3.7562    2.7389   -0.2432 C   0  0  0  0  0  0  0  0  0  0  0  0
    4.9289    2.0173   -0.3571 C   0  0  0  0  0  0  0  0  0  0  0  0
    4.9040    0.6346   -0.2971 C   0  0  0  0  0  0  0  0  0  0  0  0
    3.6954   -0.0422   -0.1544 C   0  0  0  0  0  0  0  0  0  0  0  0
    2.4889    0.6777   -0.0714 C   0  0  0  0  0  0  0  0  0  0  0  0
    1.2005   -0.0164   -0.0080 C   0  0  0  0  0  0  0  0  0  0  0  0
    1.1685   -1.4292   -0.0019 C   0  0  0  0  0  0  0  0  0  0  0  0
   -0.0500   -2.0882    0.0184 C   0  0  0  0  0  0  0  0  0  0  0  0
   -1.2474   -1.3700   -0.0128 C   0  0  0  0  0  0  0  0  0  0  0  0
   -2.5297   -2.0857    0.0732 C   0  0  0  0  0  0  0  0  0  0  0  0
    2.4370   -2.1920   -0.0070 C   0  0  0  0  0  0  0  0  0  0  0  0
    2.4299   -3.5866    0.0544 C   0  0  0  0  0  0  0  0  0  0  0  0
    3.6215   -4.2761    0.0762 C   0  0  0  0  0  0  0  0  0  0  0  0
    4.8321   -3.6037    0.0283 C   0  0  0  0  0  0  0  0  0  0  0  0
    4.8636   -2.2294   -0.0497 C   0  0  0  0  0  0  0  0  0  0  0  0
    3.6652   -1.5153   -0.0703 C   0  0  0  0  0  0  0  0  0  0  0  0
    1.3340    4.2335    0.2122 C   0  0  0  0  0  0  0  0  0  0  0  0
    0.2151    4.9356    0.5970 C   0  0  0  0  0  0  0  0  0  0  0  0
   -0.9363    4.2501    0.9590 C   0  0  0  0  0  0  0  0  0  0  0  0
   -0.9951    2.8802    0.8701 C   0  0  0  0  0  0  0  0  0  0  0  0
   -2.5047    2.0616   -0.8262 C   0  0  0  0  0  0  0  0  0  0  0  0
   -3.6889    2.7637   -0.8820 C   0  0  0  0  0  0  0  0  0  0  0  0
   -4.8861    2.1521   -0.5460 C   0  0  0  0  0  0  0  0  0  0  0  0
   -4.9041    0.8156   -0.2143 C   0  0  0  0  0  0  0  0  0  0  0  0
   -1.6609   -4.0588    0.1796 H   0  0  0  0  0  0  0  0  0  0  0  0
   -3.8039   -5.2104    0.3397 H   0  0  0  0  0  0  0  0  0  0  0  0
   -5.9071   -3.9368    0.3990 H   0  0  0  0  0  0  0  0  0  0  0  0
   -5.8834   -1.4978    0.2145 H   0  0  0  0  0  0  0  0  0  0  0  0
    3.7906    3.8168   -0.3143 H   0  0  0  0  0  0  0  0  0  0  0  0
    5.8656    2.5318   -0.4843 H   0  0  0  0  0  0  0  0  0  0  0  0
    5.8335    0.0896   -0.3476 H   0  0  0  0  0  0  0  0  0  0  0  0
   -0.0814   -3.1689    0.0605 H   0  0  0  0  0  0  0  0  0  0  0  0
    1.4961   -4.1239    0.0818 H   0  0  0  0  0  0  0  0  0  0  0  0
    3.6116   -5.3548    0.1408 H   0  0  0  0  0  0  0  0  0  0  0  0
    5.7599   -4.1556    0.0675 H   0  0  0  0  0  0  0  0  0  0  0  0
    5.8091   -1.7094   -0.0909 H   0  0  0  0  0  0  0  0  0  0  0  0
    2.2366    4.7592   -0.0675 H   0  0  0  0  0  0  0  0  0  0  0  0
    0.2405    6.0119    0.6102 H   0  0  0  0  0  0  0  0  0  0  0  0
   -1.8034    4.8092    1.2894 H   0  0  0  0  0  0  0  0  0  0  0  0
   -1.8843    2.3659    1.2224 H   0  0  0  0  0  0  0  0  0  0  0  0
   -1.5961    2.5322   -1.1772 H   0  0  0  0  0  0  0  0  0  0  0  0
   -3.6850    3.8014   -1.1761 H   0  0  0  0  0  0  0  0  0  0  0  0
   -5.8008    2.7237   -0.5314 H   0  0  0  0  0  0  0  0  0  0  0  0
   -5.8430    0.3360    0.0277 H   0  0  0  0  0  0  0  0  0  0  0  0
  1  2  2  0  0  0  0
  2  3  1  0  0  0  0
  3  4  2  0  0  0  0
  4  5  1  0  0  0  0
  5  6  2  0  0  0  0
  6  7  1  0  0  0  0
  7  8  2  0  0  0  0
  8  9  1  0  0  0  0
  9 10  1  0  0  0  0
 10 11  2  0  0  0  0
 11 12  1  0  0  0  0
 12 13  2  0  0  0  0
 13 14  1  0  0  0  0
 14 15  2  0  0  0  0
 15 16  1  0  0  0  0
 16 17  2  0  0  0  0
 12 17  1  0  0  0  0
 17 18  1  0  0  0  0
  9 18  2  0  0  0  0
 18 19  1  0  0  0  0
 19 20  2  0  0  0  0
 20 21  1  0  0  0  0
  8 21  1  0  0  0  0
 21 22  2  0  0  0  0
  5 22  1  0  0  0  0
  1 22  1  0  0  0  0
 19 23  1  0  0  0  0
 23 24  1  0  0  0  0
 24 25  2  0  0  0  0
 25 26  1  0  0  0  0
 26 27  2  0  0  0  0
 27 28  1  0  0  0  0
 23 28  2  0  0  0  0
 16 28  1  0  0  0  0
 11 29  1  0  0  0  0
 29 30  2  0  0  0  0
 30 31  1  0  0  0  0
 31 32  2  0  0  0  0
 10 32  1  0  0  0  0
  7 33  1  0  0  0  0
 33 34  2  0  0  0  0
 34 35  1  0  0  0  0
 35 36  2  0  0  0  0
  6 36  1  0  0  0  0
  1 37  1  0  0  0  0
  2 38  1  0  0  0  0
  3 39  1  0  0  0  0
  4 40  1  0  0  0  0
 13 41  1  0  0  0  0
 14 42  1  0  0  0  0
 15 43  1  0  0  0  0
 20 44  1  0  0  0  0
 24 45  1  0  0  0  0
 25 46  1  0  0  0  0
 26 47  1  0  0  0  0
 27 48  1  0  0  0  0
 29 49  1  0  0  0  0
 30 50  1  0  0  0  0
 31 51  1  0  0  0  0
 32 52  1  0  0  0  0
 33 53  1  0  0  0  0
 34 54  1  0  0  0  0
 35 55  1  0  0  0  0
 36 56  1  0  0  0  0
M  END
$$$$
