C32H16
APtclcactv01171906253D 0   0.00000     0.00000
 
 48 56  0  0  0  0  0  0  0  0999 V2000
    1.8883   -2.9135   -0.4976 C   0  0  0  0  0  0  0  0  0  0  0  0
    2.7317   -3.9788   -0.4099 C   0  0  0  0  0  0  0  0  0  0  0  0
    4.0641   -3.8110   -0.0361 C   0  0  0  0  0  0  0  0  0  0  0  0
    4.5608   -2.5699    0.2074 C   0  0  0  0  0  0  0  0  0  0  0  0
    3.7192   -1.4446    0.0943 C   0  0  0  0  0  0  0  0  0  0  0  0
    2.3287   -1.6295   -0.1400 C   0  0  0  0  0  0  0  0  0  0  0  0
    1.4415   -0.5394   -0.0229 C   0  0  0  0  0  0  0  0  0  0  0  0
   -0.0170   -0.6958    0.0616 C   0  0  0  0  0  0  0  0  0  0  0  0
   -0.6457   -1.9144    0.2215 C   0  0  0  0  0  0  0  0  0  0  0  0
   -2.0504   -2.0190    0.1677 C   0  0  0  0  0  0  0  0  0  0  0  0
   -2.8531   -0.8582    0.0606 C   0  0  0  0  0  0  0  0  0  0  0  0
   -2.2462    0.4072    0.0043 C   0  0  0  0  0  0  0  0  0  0  0  0
   -3.0727    1.6130   -0.0673 C   0  0  0  0  0  0  0  0  0  0  0  0
   -2.4576    2.8577   -0.0935 C   0  0  0  0  0  0  0  0  0  0  0  0
   -1.0588    2.9551   -0.0602 C   0  0  0  0  0  0  0  0  0  0  0  0
   -0.2536    1.7905   -0.0132 C   0  0  0  0  0  0  0  0  0  0  0  0
    1.1539    1.9095    0.0125 C   0  0  0  0  0  0  0  0  0  0  0  0
    1.7381    3.1923    0.0075 C   0  0  0  0  0  0  0  0  0  0  0  0
    3.1433    3.3359    0.0418 C   0  0  0  0  0  0  0  0  0  0  0  0
    3.9616    2.2629    0.0847 C   0  0  0  0  0  0  0  0  0  0  0  0
    3.4309    0.9501    0.0867 C   0  0  0  0  0  0  0  0  0  0  0  0
    4.2654   -0.1581    0.1642 C   0  0  0  0  0  0  0  0  0  0  0  0
    1.9797    0.7607    0.0342 C   0  0  0  0  0  0  0  0  0  0  0  0
    0.9118    4.3345   -0.0337 C   0  0  0  0  0  0  0  0  0  0  0  0
   -0.4372    4.2242   -0.0672 C   0  0  0  0  0  0  0  0  0  0  0  0
   -0.8462    0.5161    0.0156 C   0  0  0  0  0  0  0  0  0  0  0  0
   -4.5263    1.4697   -0.1113 C   0  0  0  0  0  0  0  0  0  0  0  0
   -5.0853    0.2394   -0.0787 C   0  0  0  0  0  0  0  0  0  0  0  0
   -4.2622   -0.9634    0.0084 C   0  0  0  0  0  0  0  0  0  0  0  0
   -4.8454   -2.2324    0.0393 C   0  0  0  0  0  0  0  0  0  0  0  0
   -4.0524   -3.3625    0.1360 C   0  0  0  0  0  0  0  0  0  0  0  0
   -2.6795   -3.2745    0.2043 C   0  0  0  0  0  0  0  0  0  0  0  0
    0.8978   -3.0634   -0.8996 H   0  0  0  0  0  0  0  0  0  0  0  0
    2.3610   -4.9690   -0.6308 H   0  0  0  0  0  0  0  0  0  0  0  0
    4.7060   -4.6730    0.0602 H   0  0  0  0  0  0  0  0  0  0  0  0
    5.5965   -2.4470    0.4880 H   0  0  0  0  0  0  0  0  0  0  0  0
   -0.0724   -2.8012    0.4463 H   0  0  0  0  0  0  0  0  0  0  0  0
   -3.0586    3.7538   -0.1375 H   0  0  0  0  0  0  0  0  0  0  0  0
    3.5718    4.3270    0.0325 H   0  0  0  0  0  0  0  0  0  0  0  0
    5.0316    2.4069    0.1146 H   0  0  0  0  0  0  0  0  0  0  0  0
    5.3310   -0.0266    0.2762 H   0  0  0  0  0  0  0  0  0  0  0  0
    1.3636    5.3152   -0.0401 H   0  0  0  0  0  0  0  0  0  0  0  0
   -1.0459    5.1157   -0.0982 H   0  0  0  0  0  0  0  0  0  0  0  0
   -5.1544    2.3466   -0.1690 H   0  0  0  0  0  0  0  0  0  0  0  0
   -6.1604    0.1438   -0.1172 H   0  0  0  0  0  0  0  0  0  0  0  0
   -5.9193   -2.3317   -0.0151 H   0  0  0  0  0  0  0  0  0  0  0  0
   -4.5209   -4.3354    0.1553 H   0  0  0  0  0  0  0  0  0  0  0  0
   -2.0859   -4.1728    0.2844 H   0  0  0  0  0  0  0  0  0  0  0  0
  1  2  2  0  0  0  0
  2  3  1  0  0  0  0
  3  4  2  0  0  0  0
  4  5  1  0  0  0  0
  5  6  1  0  0  0  0
  1  6  1  0  0  0  0
  6  7  2  0  0  0  0
  7  8  1  0  0  0  0
  8  9  2  0  0  0  0
  9 10  1  0  0  0  0
 10 11  2  0  0  0  0
 11 12  1  0  0  0  0
 12 13  2  0  0  0  0
 13 14  1  0  0  0  0
 14 15  2  0  0  0  0
 15 16  1  0  0  0  0
 16 17  1  0  0  0  0
 17 18  1  0  0  0  0
 18 19  2  0  0  0  0
 19 20  1  0  0  0  0
 20 21  2  0  0  0  0
 21 22  1  0  0  0  0
  5 22  2  0  0  0  0
 21 23  1  0  0  0  0
 17 23  2  0  0  0  0
  7 23  1  0  0  0  0
 18 24  1  0  0  0  0
 24 25  2  0  0  0  0
 15 25  1  0  0  0  0
 16 26  2  0  0  0  0
 12 26  1  0  0  0  0
  8 26  1  0  0  0  0
 13 27  1  0  0  0  0
 27 28  2  0  0  0  0
 28 29  1  0  0  0  0
 11 29  1  0  0  0  0
 29 30  2  0  0  0  0
 30 31  1  0  0  0  0
 31 32  2  0  0  0  0
 10 32  1  0  0  0  0
  1 33  1  0  0  0  0
  2 34  1  0  0  0  0
  3 35  1  0  0  0  0
  4 36  1  0  0  0  0
  9 37  1  0  0  0  0
 14 38  1  0  0  0  0
 19 39  1  0  0  0  0
 20 40  1  0  0  0  0
 22 41  1  0  0  0  0
 24 42  1  0  0  0  0
 25 43  1  0  0  0  0
 27 44  1  0  0  0  0
 28 45  1  0  0  0  0
 30 46  1  0  0  0  0
 31 47  1  0  0  0  0
 32 48  1  0  0  0  0
M  END
$$$$
