C24H14
APtclcactv01171906273D 0   0.00000     0.00000
 
 38 43  0  0  0  0  0  0  0  0999 V2000
   -1.2047   -2.8331   -0.0061 C   0  0  0  0  0  0  0  0  0  0  0  0
   -2.3930   -3.5041    0.0056 C   0  0  0  0  0  0  0  0  0  0  0  0
   -3.5988   -2.8143    0.0214 C   0  0  0  0  0  0  0  0  0  0  0  0
   -3.6212   -1.4487    0.0226 C   0  0  0  0  0  0  0  0  0  0  0  0
   -2.4203   -0.7340    0.0089 C   0  0  0  0  0  0  0  0  0  0  0  0
   -1.1955   -1.4320   -0.0015 C   0  0  0  0  0  0  0  0  0  0  0  0
    0.0733   -0.6995   -0.0036 C   0  0  0  0  0  0  0  0  0  0  0  0
    1.4740   -1.1567   -0.0098 C   0  0  0  0  0  0  0  0  0  0  0  0
    2.1473   -2.3692   -0.0221 C   0  0  0  0  0  0  0  0  0  0  0  0
    3.5406   -2.3867   -0.0219 C   0  0  0  0  0  0  0  0  0  0  0  0
    4.3020   -1.2490   -0.0088 C   0  0  0  0  0  0  0  0  0  0  0  0
    3.6577    0.0000    0.0031 C   0  0  0  0  0  0  0  0  0  0  0  0
    4.3019    1.2490    0.0185 C   0  0  0  0  0  0  0  0  0  0  0  0
    3.5405    2.3867    0.0262 C   0  0  0  0  0  0  0  0  0  0  0  0
    2.1472    2.3693    0.0202 C   0  0  0  0  0  0  0  0  0  0  0  0
    1.4739    1.1568    0.0074 C   0  0  0  0  0  0  0  0  0  0  0  0
    0.0733    0.6995   -0.0000 C   0  0  0  0  0  0  0  0  0  0  0  0
   -1.1955    1.4320   -0.0054 C   0  0  0  0  0  0  0  0  0  0  0  0
   -2.4203    0.7340    0.0010 C   0  0  0  0  0  0  0  0  0  0  0  0
   -3.6214    1.4487   -0.0009 C   0  0  0  0  0  0  0  0  0  0  0  0
   -3.5990    2.8142   -0.0127 C   0  0  0  0  0  0  0  0  0  0  0  0
   -2.3930    3.5040   -0.0226 C   0  0  0  0  0  0  0  0  0  0  0  0
   -1.2047    2.8330   -0.0194 C   0  0  0  0  0  0  0  0  0  0  0  0
    2.2610    0.0000   -0.0002 C   0  0  0  0  0  0  0  0  0  0  0  0
   -0.2738   -3.3806   -0.0144 H   0  0  0  0  0  0  0  0  0  0  0  0
   -2.3960   -4.5841    0.0021 H   0  0  0  0  0  0  0  0  0  0  0  0
   -4.5285   -3.3638    0.0327 H   0  0  0  0  0  0  0  0  0  0  0  0
   -4.5644   -0.9226    0.0337 H   0  0  0  0  0  0  0  0  0  0  0  0
    1.5937   -3.2964   -0.0314 H   0  0  0  0  0  0  0  0  0  0  0  0
    4.0434   -3.3424   -0.0321 H   0  0  0  0  0  0  0  0  0  0  0  0
    5.3802   -1.3102   -0.0073 H   0  0  0  0  0  0  0  0  0  0  0  0
    5.3801    1.3103    0.0244 H   0  0  0  0  0  0  0  0  0  0  0  0
    4.0432    3.3425    0.0378 H   0  0  0  0  0  0  0  0  0  0  0  0
    1.5935    3.2965    0.0258 H   0  0  0  0  0  0  0  0  0  0  0  0
   -4.5646    0.9226    0.0065 H   0  0  0  0  0  0  0  0  0  0  0  0
   -4.5287    3.3637   -0.0147 H   0  0  0  0  0  0  0  0  0  0  0  0
   -2.3961    4.5839   -0.0334 H   0  0  0  0  0  0  0  0  0  0  0  0
   -0.2738    3.3805   -0.0262 H   0  0  0  0  0  0  0  0  0  0  0  0
  1  2  2  0  0  0  0
  2  3  1  0  0  0  0
  3  4  2  0  0  0  0
  4  5  1  0  0  0  0
  5  6  2  0  0  0  0
  1  6  1  0  0  0  0
  6  7  1  0  0  0  0
  7  8  1  0  0  0  0
  8  9  2  0  0  0  0
  9 10  1  0  0  0  0
 10 11  2  0  0  0  0
 11 12  1  0  0  0  0
 12 13  2  0  0  0  0
 13 14  1  0  0  0  0
 14 15  2  0  0  0  0
 15 16  1  0  0  0  0
 16 17  1  0  0  0  0
  7 17  2  0  0  0  0
 17 18  1  0  0  0  0
 18 19  2  0  0  0  0
  5 19  1  0  0  0  0
 19 20  1  0  0  0  0
 20 21  2  0  0  0  0
 21 22  1  0  0  0  0
 22 23  2  0  0  0  0
 18 23  1  0  0  0  0
 16 24  2  0  0  0  0
 12 24  1  0  0  0  0
  8 24  1  0  0  0  0
  1 25  1  0  0  0  0
  2 26  1  0  0  0  0
  3 27  1  0  0  0  0
  4 28  1  0  0  0  0
  9 29  1  0  0  0  0
 10 30  1  0  0  0  0
 11 31  1  0  0  0  0
 13 32  1  0  0  0  0
 14 33  1  0  0  0  0
 15 34  1  0  0  0  0
 20 35  1  0  0  0  0
 21 36  1  0  0  0  0
 22 37  1  0  0  0  0
 23 38  1  0  0  0  0
M  END
$$$$
