C28H16
APtclcactv01171906263D 0   0.00000     0.00000
 
 44 50  0  0  0  0  0  0  0  0999 V2000
   -3.5901   -2.5889   -0.0005 C   0  0  0  0  0  0  0  0  0  0  0  0
   -4.9736   -2.5798   -0.0008 C   0  0  0  0  0  0  0  0  0  0  0  0
   -5.6788   -1.3969   -0.0011 C   0  0  0  0  0  0  0  0  0  0  0  0
   -4.9947   -0.1681   -0.0007 C   0  0  0  0  0  0  0  0  0  0  0  0
   -3.5806   -0.1606    0.0001 C   0  0  0  0  0  0  0  0  0  0  0  0
   -2.8952    1.0724    0.0005 C   0  0  0  0  0  0  0  0  0  0  0  0
   -1.4249    1.0635    0.0012 C   0  0  0  0  0  0  0  0  0  0  0  0
   -0.6915    2.2380    0.0012 C   0  0  0  0  0  0  0  0  0  0  0  0
    0.6915    2.2379    0.0009 C   0  0  0  0  0  0  0  0  0  0  0  0
    1.4248    1.0634    0.0011 C   0  0  0  0  0  0  0  0  0  0  0  0
    2.8951    1.0723    0.0001 C   0  0  0  0  0  0  0  0  0  0  0  0
    3.5806   -0.1607   -0.0001 C   0  0  0  0  0  0  0  0  0  0  0  0
    4.9947   -0.1679   -0.0010 C   0  0  0  0  0  0  0  0  0  0  0  0
    5.6789   -1.3967   -0.0012 C   0  0  0  0  0  0  0  0  0  0  0  0
    4.9739   -2.5796   -0.0005 C   0  0  0  0  0  0  0  0  0  0  0  0
    3.5904   -2.5889    0.0004 C   0  0  0  0  0  0  0  0  0  0  0  0
    2.8718   -1.3855    0.0001 C   0  0  0  0  0  0  0  0  0  0  0  0
    1.4607   -1.4044    0.0011 C   0  0  0  0  0  0  0  0  0  0  0  0
    0.7360   -0.2332    0.0017 C   0  0  0  0  0  0  0  0  0  0  0  0
   -0.7360   -0.2331    0.0015 C   0  0  0  0  0  0  0  0  0  0  0  0
   -1.4606   -1.4043    0.0012 C   0  0  0  0  0  0  0  0  0  0  0  0
   -2.8717   -1.3853   -0.0001 C   0  0  0  0  0  0  0  0  0  0  0  0
    5.6913    1.0530   -0.0012 C   0  0  0  0  0  0  0  0  0  0  0  0
    5.0008    2.2431   -0.0005 C   0  0  0  0  0  0  0  0  0  0  0  0
    3.6139    2.2630   -0.0010 C   0  0  0  0  0  0  0  0  0  0  0  0
   -3.6142    2.2630   -0.0003 C   0  0  0  0  0  0  0  0  0  0  0  0
   -5.0011    2.2430   -0.0015 C   0  0  0  0  0  0  0  0  0  0  0  0
   -5.6915    1.0528   -0.0006 C   0  0  0  0  0  0  0  0  0  0  0  0
   -3.0600   -3.5298    0.0040 H   0  0  0  0  0  0  0  0  0  0  0  0
   -5.5101   -3.5171   -0.0011 H   0  0  0  0  0  0  0  0  0  0  0  0
   -6.7586   -1.4129   -0.0020 H   0  0  0  0  0  0  0  0  0  0  0  0
   -1.2152    3.1825    0.0011 H   0  0  0  0  0  0  0  0  0  0  0  0
    1.2152    3.1824    0.0002 H   0  0  0  0  0  0  0  0  0  0  0  0
    6.7588   -1.4125   -0.0022 H   0  0  0  0  0  0  0  0  0  0  0  0
    5.5105   -3.5169   -0.0010 H   0  0  0  0  0  0  0  0  0  0  0  0
    3.0604   -3.5299    0.0009 H   0  0  0  0  0  0  0  0  0  0  0  0
    0.9413   -2.3513    0.0017 H   0  0  0  0  0  0  0  0  0  0  0  0
   -0.9412   -2.3512    0.0008 H   0  0  0  0  0  0  0  0  0  0  0  0
    6.7713    1.0569   -0.0016 H   0  0  0  0  0  0  0  0  0  0  0  0
    5.5465    3.1751   -0.0007 H   0  0  0  0  0  0  0  0  0  0  0  0
    3.0898    3.2073   -0.0004 H   0  0  0  0  0  0  0  0  0  0  0  0
   -3.0902    3.2074    0.0004 H   0  0  0  0  0  0  0  0  0  0  0  0
   -5.5469    3.1749   -0.0021 H   0  0  0  0  0  0  0  0  0  0  0  0
   -6.7715    1.0566   -0.0019 H   0  0  0  0  0  0  0  0  0  0  0  0
  1  2  2  0  0  0  0
  2  3  1  0  0  0  0
  3  4  2  0  0  0  0
  4  5  1  0  0  0  0
  5  6  1  0  0  0  0
  6  7  1  0  0  0  0
  7  8  2  0  0  0  0
  8  9  1  0  0  0  0
  9 10  2  0  0  0  0
 10 11  1  0  0  0  0
 11 12  2  0  0  0  0
 12 13  1  0  0  0  0
 13 14  1  0  0  0  0
 14 15  2  0  0  0  0
 15 16  1  0  0  0  0
 16 17  2  0  0  0  0
 12 17  1  0  0  0  0
 17 18  1  0  0  0  0
 18 19  2  0  0  0  0
 10 19  1  0  0  0  0
 19 20  1  0  0  0  0
  7 20  1  0  0  0  0
 20 21  2  0  0  0  0
 21 22  1  0  0  0  0
  1 22  1  0  0  0  0
  5 22  2  0  0  0  0
 13 23  2  0  0  0  0
 23 24  1  0  0  0  0
 24 25  2  0  0  0  0
 11 25  1  0  0  0  0
  6 26  2  0  0  0  0
 26 27  1  0  0  0  0
 27 28  2  0  0  0  0
  4 28  1  0  0  0  0
  1 29  1  0  0  0  0
  2 30  1  0  0  0  0
  3 31  1  0  0  0  0
  8 32  1  0  0  0  0
  9 33  1  0  0  0  0
 14 34  1  0  0  0  0
 15 35  1  0  0  0  0
 16 36  1  0  0  0  0
 18 37  1  0  0  0  0
 21 38  1  0  0  0  0
 23 39  1  0  0  0  0
 24 40  1  0  0  0  0
 25 41  1  0  0  0  0
 26 42  1  0  0  0  0
 27 43  1  0  0  0  0
 28 44  1  0  0  0  0
M  END
$$$$
