C30H18
APtclcactv01171906263D 0   0.00000     0.00000
 
 48 54  0  0  0  0  0  0  0  0999 V2000
   -2.9079   -2.3008   -0.4899 C   0  0  0  0  0  0  0  0  0  0  0  0
   -4.2429   -2.5851   -0.4501 C   0  0  0  0  0  0  0  0  0  0  0  0
   -5.1668   -1.6017   -0.1235 C   0  0  0  0  0  0  0  0  0  0  0  0
   -4.7493   -0.3065    0.0779 C   0  0  0  0  0  0  0  0  0  0  0  0
   -3.3913    0.0044   -0.0050 C   0  0  0  0  0  0  0  0  0  0  0  0
   -2.9342    1.3983    0.0210 C   0  0  0  0  0  0  0  0  0  0  0  0
   -1.5547    1.6787   -0.0708 C   0  0  0  0  0  0  0  0  0  0  0  0
   -0.5747    0.5915    0.0403 C   0  0  0  0  0  0  0  0  0  0  0  0
    0.8541    0.8741    0.1698 C   0  0  0  0  0  0  0  0  0  0  0  0
    1.3199    2.1427    0.5655 C   0  0  0  0  0  0  0  0  0  0  0  0
    2.6350    2.4560    0.5754 C   0  0  0  0  0  0  0  0  0  0  0  0
    3.6094    1.5138    0.1914 C   0  0  0  0  0  0  0  0  0  0  0  0
    4.9727    1.8408    0.1937 C   0  0  0  0  0  0  0  0  0  0  0  0
    5.8850    0.9396   -0.2674 C   0  0  0  0  0  0  0  0  0  0  0  0
    5.4759   -0.3053   -0.7351 C   0  0  0  0  0  0  0  0  0  0  0  0
    4.1594   -0.6642   -0.7124 C   0  0  0  0  0  0  0  0  0  0  0  0
    3.1998    0.2119   -0.2006 C   0  0  0  0  0  0  0  0  0  0  0  0
    1.8007   -0.1495   -0.0211 C   0  0  0  0  0  0  0  0  0  0  0  0
    1.3549   -1.5380    0.1032 C   0  0  0  0  0  0  0  0  0  0  0  0
   -0.0306   -1.8212    0.1635 C   0  0  0  0  0  0  0  0  0  0  0  0
   -1.0125   -0.7407    0.0247 C   0  0  0  0  0  0  0  0  0  0  0  0
   -2.4401   -1.0322   -0.1371 C   0  0  0  0  0  0  0  0  0  0  0  0
   -0.4341   -3.1419    0.3891 C   0  0  0  0  0  0  0  0  0  0  0  0
    0.4842   -4.1494    0.4527 C   0  0  0  0  0  0  0  0  0  0  0  0
    1.8411   -3.8736    0.3609 C   0  0  0  0  0  0  0  0  0  0  0  0
    2.2727   -2.5857    0.2230 C   0  0  0  0  0  0  0  0  0  0  0  0
   -1.1630    3.0051   -0.2733 C   0  0  0  0  0  0  0  0  0  0  0  0
   -2.0781    4.0169   -0.2121 C   0  0  0  0  0  0  0  0  0  0  0  0
   -3.4193    3.7476    0.0221 C   0  0  0  0  0  0  0  0  0  0  0  0
   -3.8514    2.4460    0.1293 C   0  0  0  0  0  0  0  0  0  0  0  0
   -2.2289   -3.0541   -0.8647 H   0  0  0  0  0  0  0  0  0  0  0  0
   -4.5839   -3.5845   -0.6756 H   0  0  0  0  0  0  0  0  0  0  0  0
   -6.2110   -1.8530   -0.0241 H   0  0  0  0  0  0  0  0  0  0  0  0
   -5.4731    0.4618    0.3060 H   0  0  0  0  0  0  0  0  0  0  0  0
    0.6221    2.8814    0.9318 H   0  0  0  0  0  0  0  0  0  0  0  0
    2.9424    3.4446    0.8836 H   0  0  0  0  0  0  0  0  0  0  0  0
    5.2981    2.8034    0.5612 H   0  0  0  0  0  0  0  0  0  0  0  0
    6.9337    1.1945   -0.2691 H   0  0  0  0  0  0  0  0  0  0  0  0
    6.2093   -0.9982   -1.1200 H   0  0  0  0  0  0  0  0  0  0  0  0
    3.8655   -1.6133   -1.1387 H   0  0  0  0  0  0  0  0  0  0  0  0
   -1.4687   -3.3799    0.5862 H   0  0  0  0  0  0  0  0  0  0  0  0
    0.1503   -5.1690    0.5741 H   0  0  0  0  0  0  0  0  0  0  0  0
    2.5595   -4.6777    0.3982 H   0  0  0  0  0  0  0  0  0  0  0  0
    3.3347   -2.3926    0.2590 H   0  0  0  0  0  0  0  0  0  0  0  0
   -0.1455    3.2458   -0.5428 H   0  0  0  0  0  0  0  0  0  0  0  0
   -1.7552    5.0381   -0.3501 H   0  0  0  0  0  0  0  0  0  0  0  0
   -4.1237    4.5591    0.1205 H   0  0  0  0  0  0  0  0  0  0  0  0
   -4.8977    2.2408    0.3026 H   0  0  0  0  0  0  0  0  0  0  0  0
  1  2  2  0  0  0  0
  2  3  1  0  0  0  0
  3  4  2  0  0  0  0
  4  5  1  0  0  0  0
  5  6  2  0  0  0  0
  6  7  1  0  0  0  0
  7  8  2  0  0  0  0
  8  9  1  0  0  0  0
  9 10  2  0  0  0  0
 10 11  1  0  0  0  0
 11 12  2  0  0  0  0
 12 13  1  0  0  0  0
 13 14  2  0  0  0  0
 14 15  1  0  0  0  0
 15 16  2  0  0  0  0
 16 17  1  0  0  0  0
 12 17  1  0  0  0  0
 17 18  2  0  0  0  0
  9 18  1  0  0  0  0
 18 19  1  0  0  0  0
 19 20  2  0  0  0  0
 20 21  1  0  0  0  0
  8 21  1  0  0  0  0
 21 22  2  0  0  0  0
  5 22  1  0  0  0  0
  1 22  1  0  0  0  0
 20 23  1  0  0  0  0
 23 24  2  0  0  0  0
 24 25  1  0  0  0  0
 25 26  2  0  0  0  0
 19 26  1  0  0  0  0
  7 27  1  0  0  0  0
 27 28  2  0  0  0  0
 28 29  1  0  0  0  0
 29 30  2  0  0  0  0
  6 30  1  0  0  0  0
  1 31  1  0  0  0  0
  2 32  1  0  0  0  0
  3 33  1  0  0  0  0
  4 34  1  0  0  0  0
 10 35  1  0  0  0  0
 11 36  1  0  0  0  0
 13 37  1  0  0  0  0
 14 38  1  0  0  0  0
 15 39  1  0  0  0  0
 16 40  1  0  0  0  0
 23 41  1  0  0  0  0
 24 42  1  0  0  0  0
 25 43  1  0  0  0  0
 26 44  1  0  0  0  0
 27 45  1  0  0  0  0
 28 46  1  0  0  0  0
 29 47  1  0  0  0  0
 30 48  1  0  0  0  0
M  END
$$$$
