C32H16
APtclcactv01171906263D 0   0.00000     0.00000
 
 48 56  0  0  0  0  0  0  0  0999 V2000
    3.1654   -3.5588   -0.0024 C   0  0  0  0  0  0  0  0  0  0  0  0
    1.9855   -2.7886   -0.0016 C   0  0  0  0  0  0  0  0  0  0  0  0
    0.7310   -3.4168    0.0001 C   0  0  0  0  0  0  0  0  0  0  0  0
   -0.4325   -2.6555    0.0009 C   0  0  0  0  0  0  0  0  0  0  0  0
   -1.7165   -3.2522    0.0022 C   0  0  0  0  0  0  0  0  0  0  0  0
   -2.8310   -2.4841    0.0024 C   0  0  0  0  0  0  0  0  0  0  0  0
   -2.7624   -1.0770    0.0013 C   0  0  0  0  0  0  0  0  0  0  0  0
   -3.9742   -0.2589    0.0009 C   0  0  0  0  0  0  0  0  0  0  0  0
   -3.8668    1.1542   -0.0006 C   0  0  0  0  0  0  0  0  0  0  0  0
   -2.6101    1.7811   -0.0008 C   0  0  0  0  0  0  0  0  0  0  0  0
   -1.4453    1.0361   -0.0005 C   0  0  0  0  0  0  0  0  0  0  0  0
   -0.1231    1.6836   -0.0006 C   0  0  0  0  0  0  0  0  0  0  0  0
    0.0003    3.0826   -0.0011 C   0  0  0  0  0  0  0  0  0  0  0  0
    1.2213    3.6776   -0.0007 C   0  0  0  0  0  0  0  0  0  0  0  0
    2.3996    2.9024   -0.0003 C   0  0  0  0  0  0  0  0  0  0  0  0
    2.3039    1.4920    0.0001 C   0  0  0  0  0  0  0  0  0  0  0  0
    3.4748    0.7041    0.0013 C   0  0  0  0  0  0  0  0  0  0  0  0
    3.3650   -0.7659    0.0020 C   0  0  0  0  0  0  0  0  0  0  0  0
    2.0879   -1.3743   -0.0019 C   0  0  0  0  0  0  0  0  0  0  0  0
    0.9263   -0.5772   -0.0070 C   0  0  0  0  0  0  0  0  0  0  0  0
   -0.3341   -1.1944   -0.0001 C   0  0  0  0  0  0  0  0  0  0  0  0
   -1.5157   -0.4256    0.0001 C   0  0  0  0  0  0  0  0  0  0  0  0
    1.0308    0.8822    0.0001 C   0  0  0  0  0  0  0  0  0  0  0  0
    4.4992   -1.5652    0.0029 C   0  0  0  0  0  0  0  0  0  0  0  0
    4.3843   -2.9491   -0.0035 C   0  0  0  0  0  0  0  0  0  0  0  0
    4.7142    1.3307    0.0024 C   0  0  0  0  0  0  0  0  0  0  0  0
    4.7993    2.7153    0.0026 C   0  0  0  0  0  0  0  0  0  0  0  0
    3.6688    3.4998    0.0003 C   0  0  0  0  0  0  0  0  0  0  0  0
   -5.0452    1.9269   -0.0014 C   0  0  0  0  0  0  0  0  0  0  0  0
   -6.2586    1.3119   -0.0008 C   0  0  0  0  0  0  0  0  0  0  0  0
   -6.3585   -0.0773    0.0008 C   0  0  0  0  0  0  0  0  0  0  0  0
   -5.2409   -0.8571    0.0016 C   0  0  0  0  0  0  0  0  0  0  0  0
    3.1036   -4.6370    0.0023 H   0  0  0  0  0  0  0  0  0  0  0  0
    0.6689   -4.4950    0.0004 H   0  0  0  0  0  0  0  0  0  0  0  0
   -1.8073   -4.3284    0.0027 H   0  0  0  0  0  0  0  0  0  0  0  0
   -3.7991   -2.9629    0.0030 H   0  0  0  0  0  0  0  0  0  0  0  0
   -2.5527    2.8596   -0.0016 H   0  0  0  0  0  0  0  0  0  0  0  0
   -0.8895    3.6948   -0.0022 H   0  0  0  0  0  0  0  0  0  0  0  0
    1.2906    4.7554   -0.0011 H   0  0  0  0  0  0  0  0  0  0  0  0
    5.4776   -1.1080    0.0028 H   0  0  0  0  0  0  0  0  0  0  0  0
    5.2787   -3.5544   -0.0026 H   0  0  0  0  0  0  0  0  0  0  0  0
    5.6164    0.7370    0.0034 H   0  0  0  0  0  0  0  0  0  0  0  0
    5.7711    3.1864    0.0042 H   0  0  0  0  0  0  0  0  0  0  0  0
    3.7588    4.5761    0.0008 H   0  0  0  0  0  0  0  0  0  0  0  0
   -4.9851    3.0053   -0.0023 H   0  0  0  0  0  0  0  0  0  0  0  0
   -7.1579    1.9099   -0.0010 H   0  0  0  0  0  0  0  0  0  0  0  0
   -7.3334   -0.5421    0.0013 H   0  0  0  0  0  0  0  0  0  0  0  0
   -5.3315   -1.9332    0.0028 H   0  0  0  0  0  0  0  0  0  0  0  0
  1  2  2  0  0  0  0
  2  3  1  0  0  0  0
  3  4  2  0  0  0  0
  4  5  1  0  0  0  0
  5  6  2  0  0  0  0
  6  7  1  0  0  0  0
  7  8  1  0  0  0  0
  8  9  2  0  0  0  0
  9 10  1  0  0  0  0
 10 11  2  0  0  0  0
 11 12  1  0  0  0  0
 12 13  1  0  0  0  0
 13 14  2  0  0  0  0
 14 15  1  0  0  0  0
 15 16  1  0  0  0  0
 16 17  2  0  0  0  0
 17 18  1  0  0  0  0
 18 19  2  0  0  0  0
  2 19  1  0  0  0  0
 19 20  1  0  0  0  0
 20 21  2  0  0  0  0
  4 21  1  0  0  0  0
 21 22  1  0  0  0  0
 11 22  1  0  0  0  0
  7 22  2  0  0  0  0
 20 23  1  0  0  0  0
 16 23  1  0  0  0  0
 12 23  2  0  0  0  0
 18 24  1  0  0  0  0
 24 25  2  0  0  0  0
  1 25  1  0  0  0  0
 17 26  1  0  0  0  0
 26 27  2  0  0  0  0
 27 28  1  0  0  0  0
 15 28  2  0  0  0  0
  9 29  1  0  0  0  0
 29 30  2  0  0  0  0
 30 31  1  0  0  0  0
 31 32  2  0  0  0  0
  8 32  1  0  0  0  0
  1 33  1  0  0  0  0
  3 34  1  0  0  0  0
  5 35  1  0  0  0  0
  6 36  1  0  0  0  0
 10 37  1  0  0  0  0
 13 38  1  0  0  0  0
 14 39  1  0  0  0  0
 24 40  1  0  0  0  0
 25 41  1  0  0  0  0
 26 42  1  0  0  0  0
 27 43  1  0  0  0  0
 28 44  1  0  0  0  0
 29 45  1  0  0  0  0
 30 46  1  0  0  0  0
 31 47  1  0  0  0  0
 32 48  1  0  0  0  0
M  END
$$$$
