C30H18
APtclcactv01171906253D 0   0.00000     0.00000
 
 48 54  0  0  0  0  0  0  0  0999 V2000
   -3.5488   -2.2463    0.0006 C   0  0  0  0  0  0  0  0  0  0  0  0
   -4.6879   -3.0006    0.0006 C   0  0  0  0  0  0  0  0  0  0  0  0
   -5.9395   -2.3968    0.0006 C   0  0  0  0  0  0  0  0  0  0  0  0
   -6.0620   -1.0379    0.0001 C   0  0  0  0  0  0  0  0  0  0  0  0
   -4.9123   -0.2358    0.0001 C   0  0  0  0  0  0  0  0  0  0  0  0
   -3.6417   -0.8537    0.0005 C   0  0  0  0  0  0  0  0  0  0  0  0
   -2.4442   -0.0059    0.0004 C   0  0  0  0  0  0  0  0  0  0  0  0
   -1.1679   -0.5613    0.0004 C   0  0  0  0  0  0  0  0  0  0  0  0
   -0.0529    0.2670   -0.0002 C   0  0  0  0  0  0  0  0  0  0  0  0
    1.3012   -0.3221   -0.0003 C   0  0  0  0  0  0  0  0  0  0  0  0
    1.4529   -1.6982    0.0004 C   0  0  0  0  0  0  0  0  0  0  0  0
    2.7371   -2.2586    0.0003 C   0  0  0  0  0  0  0  0  0  0  0  0
    2.9168   -3.6543    0.0005 C   0  0  0  0  0  0  0  0  0  0  0  0
    4.1748   -4.1724   -0.0001 C   0  0  0  0  0  0  0  0  0  0  0  0
    5.2940   -3.3410   -0.0010 C   0  0  0  0  0  0  0  0  0  0  0  0
    5.1613   -1.9870   -0.0008 C   0  0  0  0  0  0  0  0  0  0  0  0
    3.8771   -1.4118   -0.0006 C   0  0  0  0  0  0  0  0  0  0  0  0
    3.7115   -0.0203    0.0001 C   0  0  0  0  0  0  0  0  0  0  0  0
    2.4381    0.5225   -0.0005 C   0  0  0  0  0  0  0  0  0  0  0  0
    2.2649    1.9884    0.0003 C   0  0  0  0  0  0  0  0  0  0  0  0
    0.9761    2.5466   -0.0004 C   0  0  0  0  0  0  0  0  0  0  0  0
   -0.2119    1.6707   -0.0012 C   0  0  0  0  0  0  0  0  0  0  0  0
   -1.4820    2.2290   -0.0020 C   0  0  0  0  0  0  0  0  0  0  0  0
   -2.6087    1.4010   -0.0001 C   0  0  0  0  0  0  0  0  0  0  0  0
   -3.9108    1.9562   -0.0015 C   0  0  0  0  0  0  0  0  0  0  0  0
   -5.0095    1.1755   -0.0004 C   0  0  0  0  0  0  0  0  0  0  0  0
    0.8252    3.9339   -0.0000 C   0  0  0  0  0  0  0  0  0  0  0  0
    1.9386    4.7457    0.0011 C   0  0  0  0  0  0  0  0  0  0  0  0
    3.2110    4.1946    0.0013 C   0  0  0  0  0  0  0  0  0  0  0  0
    3.3802    2.8271    0.0014 C   0  0  0  0  0  0  0  0  0  0  0  0
   -2.5809   -2.7255    0.0050 H   0  0  0  0  0  0  0  0  0  0  0  0
   -4.6148   -4.0781    0.0002 H   0  0  0  0  0  0  0  0  0  0  0  0
   -6.8274   -3.0116    0.0006 H   0  0  0  0  0  0  0  0  0  0  0  0
   -7.0411   -0.5820   -0.0005 H   0  0  0  0  0  0  0  0  0  0  0  0
   -1.0448   -1.6342    0.0011 H   0  0  0  0  0  0  0  0  0  0  0  0
    0.5831   -2.3384    0.0013 H   0  0  0  0  0  0  0  0  0  0  0  0
    2.0597   -4.3114    0.0016 H   0  0  0  0  0  0  0  0  0  0  0  0
    4.3085   -5.2441    0.0004 H   0  0  0  0  0  0  0  0  0  0  0  0
    6.2814   -3.7785   -0.0016 H   0  0  0  0  0  0  0  0  0  0  0  0
    6.0380   -1.3563   -0.0015 H   0  0  0  0  0  0  0  0  0  0  0  0
    4.5757    0.6273    0.0005 H   0  0  0  0  0  0  0  0  0  0  0  0
   -1.6003    3.3025   -0.0016 H   0  0  0  0  0  0  0  0  0  0  0  0
   -4.0265    3.0300   -0.0032 H   0  0  0  0  0  0  0  0  0  0  0  0
   -5.9857    1.6376   -0.0015 H   0  0  0  0  0  0  0  0  0  0  0  0
   -0.1626    4.3705   -0.0009 H   0  0  0  0  0  0  0  0  0  0  0  0
    1.8193    5.8191    0.0014 H   0  0  0  0  0  0  0  0  0  0  0  0
    4.0756    4.8418    0.0014 H   0  0  0  0  0  0  0  0  0  0  0  0
    4.3743    2.4050    0.0020 H   0  0  0  0  0  0  0  0  0  0  0  0
  1  2  2  0  0  0  0
  2  3  1  0  0  0  0
  3  4  2  0  0  0  0
  4  5  1  0  0  0  0
  5  6  1  0  0  0  0
  1  6  1  0  0  0  0
  6  7  2  0  0  0  0
  7  8  1  0  0  0  0
  8  9  2  0  0  0  0
  9 10  1  0  0  0  0
 10 11  2  0  0  0  0
 11 12  1  0  0  0  0
 12 13  2  0  0  0  0
 13 14  1  0  0  0  0
 14 15  2  0  0  0  0
 15 16  1  0  0  0  0
 16 17  2  0  0  0  0
 12 17  1  0  0  0  0
 17 18  1  0  0  0  0
 18 19  2  0  0  0  0
 10 19  1  0  0  0  0
 19 20  1  0  0  0  0
 20 21  2  0  0  0  0
 21 22  1  0  0  0  0
  9 22  1  0  0  0  0
 22 23  2  0  0  0  0
 23 24  1  0  0  0  0
  7 24  1  0  0  0  0
 24 25  2  0  0  0  0
 25 26  1  0  0  0  0
  5 26  2  0  0  0  0
 21 27  1  0  0  0  0
 27 28  2  0  0  0  0
 28 29  1  0  0  0  0
 29 30  2  0  0  0  0
 20 30  1  0  0  0  0
  1 31  1  0  0  0  0
  2 32  1  0  0  0  0
  3 33  1  0  0  0  0
  4 34  1  0  0  0  0
  8 35  1  0  0  0  0
 11 36  1  0  0  0  0
 13 37  1  0  0  0  0
 14 38  1  0  0  0  0
 15 39  1  0  0  0  0
 16 40  1  0  0  0  0
 18 41  1  0  0  0  0
 23 42  1  0  0  0  0
 25 43  1  0  0  0  0
 26 44  1  0  0  0  0
 27 45  1  0  0  0  0
 28 46  1  0  0  0  0
 29 47  1  0  0  0  0
 30 48  1  0  0  0  0
M  END
$$$$
