C26H16
APtclcactv01171906253D 0   0.00000     0.00000
 
 42 47  0  0  0  0  0  0  0  0999 V2000
    3.6057   -2.4235   -0.1843 C   0  0  0  0  0  0  0  0  0  0  0  0
    2.3080   -1.8821   -0.0594 C   0  0  0  0  0  0  0  0  0  0  0  0
    1.1943   -2.7301    0.0875 C   0  0  0  0  0  0  0  0  0  0  0  0
   -0.0624   -2.2165    0.1076 C   0  0  0  0  0  0  0  0  0  0  0  0
   -0.2764   -0.8403   -0.0491 C   0  0  0  0  0  0  0  0  0  0  0  0
   -1.6363   -0.2864   -0.0537 C   0  0  0  0  0  0  0  0  0  0  0  0
   -2.7464   -1.0989    0.1100 C   0  0  0  0  0  0  0  0  0  0  0  0
   -4.0244   -0.5321    0.1082 C   0  0  0  0  0  0  0  0  0  0  0  0
   -4.1865    0.9149   -0.0506 C   0  0  0  0  0  0  0  0  0  0  0  0
   -3.0658    1.7286   -0.2287 C   0  0  0  0  0  0  0  0  0  0  0  0
   -1.7979    1.1573   -0.2485 C   0  0  0  0  0  0  0  0  0  0  0  0
   -0.6463    1.9486   -0.4770 C   0  0  0  0  0  0  0  0  0  0  0  0
    0.5858    1.4011   -0.4821 C   0  0  0  0  0  0  0  0  0  0  0  0
    0.8183    0.0386   -0.2066 C   0  0  0  0  0  0  0  0  0  0  0  0
    2.1255   -0.4808   -0.0703 C   0  0  0  0  0  0  0  0  0  0  0  0
    3.3066    0.3605    0.1023 C   0  0  0  0  0  0  0  0  0  0  0  0
    4.5851   -0.2315   -0.0548 C   0  0  0  0  0  0  0  0  0  0  0  0
    4.6969   -1.6305   -0.2080 C   0  0  0  0  0  0  0  0  0  0  0  0
    5.7269    0.5824   -0.0400 C   0  0  0  0  0  0  0  0  0  0  0  0
    5.6071    1.9093    0.2481 C   0  0  0  0  0  0  0  0  0  0  0  0
    4.3635    2.4654    0.5270 C   0  0  0  0  0  0  0  0  0  0  0  0
    3.2295    1.7061    0.4697 C   0  0  0  0  0  0  0  0  0  0  0  0
   -5.4875    1.4582   -0.0241 C   0  0  0  0  0  0  0  0  0  0  0  0
   -6.5548    0.6304    0.1218 C   0  0  0  0  0  0  0  0  0  0  0  0
   -6.4013   -0.7490    0.2535 C   0  0  0  0  0  0  0  0  0  0  0  0
   -5.1750   -1.3334    0.2512 C   0  0  0  0  0  0  0  0  0  0  0  0
    3.7286   -3.4942   -0.2579 H   0  0  0  0  0  0  0  0  0  0  0  0
    1.3392   -3.7955    0.1886 H   0  0  0  0  0  0  0  0  0  0  0  0
   -0.9030   -2.8787    0.2473 H   0  0  0  0  0  0  0  0  0  0  0  0
   -2.6298   -2.1639    0.2403 H   0  0  0  0  0  0  0  0  0  0  0  0
   -3.1836    2.7952   -0.3489 H   0  0  0  0  0  0  0  0  0  0  0  0
   -0.7549    3.0101   -0.6469 H   0  0  0  0  0  0  0  0  0  0  0  0
    1.4175    2.0353   -0.7534 H   0  0  0  0  0  0  0  0  0  0  0  0
    5.6721   -2.0723   -0.3460 H   0  0  0  0  0  0  0  0  0  0  0  0
    6.6967    0.1601   -0.2571 H   0  0  0  0  0  0  0  0  0  0  0  0
    6.4858    2.5360    0.2579 H   0  0  0  0  0  0  0  0  0  0  0  0
    4.2914    3.5095    0.7933 H   0  0  0  0  0  0  0  0  0  0  0  0
    2.2850    2.1479    0.7502 H   0  0  0  0  0  0  0  0  0  0  0  0
   -5.6350    2.5240   -0.1200 H   0  0  0  0  0  0  0  0  0  0  0  0
   -7.5493    1.0521    0.1376 H   0  0  0  0  0  0  0  0  0  0  0  0
   -7.2795   -1.3693    0.3592 H   0  0  0  0  0  0  0  0  0  0  0  0
   -5.0819   -2.4042    0.3548 H   0  0  0  0  0  0  0  0  0  0  0  0
  1  2  2  0  0  0  0
  2  3  1  0  0  0  0
  3  4  2  0  0  0  0
  4  5  1  0  0  0  0
  5  6  2  0  0  0  0
  6  7  1  0  0  0  0
  7  8  2  0  0  0  0
  8  9  1  0  0  0  0
  9 10  2  0  0  0  0
 10 11  1  0  0  0  0
  6 11  1  0  0  0  0
 11 12  2  0  0  0  0
 12 13  1  0  0  0  0
 13 14  2  0  0  0  0
  5 14  1  0  0  0  0
 14 15  1  0  0  0  0
  2 15  1  0  0  0  0
 15 16  2  0  0  0  0
 16 17  1  0  0  0  0
 17 18  2  0  0  0  0
  1 18  1  0  0  0  0
 17 19  1  0  0  0  0
 19 20  2  0  0  0  0
 20 21  1  0  0  0  0
 21 22  2  0  0  0  0
 16 22  1  0  0  0  0
  9 23  1  0  0  0  0
 23 24  2  0  0  0  0
 24 25  1  0  0  0  0
 25 26  2  0  0  0  0
  8 26  1  0  0  0  0
  1 27  1  0  0  0  0
  3 28  1  0  0  0  0
  4 29  1  0  0  0  0
  7 30  1  0  0  0  0
 10 31  1  0  0  0  0
 12 32  1  0  0  0  0
 13 33  1  0  0  0  0
 18 34  1  0  0  0  0
 19 35  1  0  0  0  0
 20 36  1  0  0  0  0
 21 37  1  0  0  0  0
 22 38  1  0  0  0  0
 23 39  1  0  0  0  0
 24 40  1  0  0  0  0
 25 41  1  0  0  0  0
 26 42  1  0  0  0  0
M  END
$$$$
