C28H16
APtclcactv01171906263D 0   0.00000     0.00000
 
 44 50  0  0  0  0  0  0  0  0999 V2000
    4.2664   -2.2223    0.1768 C   0  0  0  0  0  0  0  0  0  0  0  0
    2.8618   -2.2074   -0.0027 C   0  0  0  0  0  0  0  0  0  0  0  0
    2.1657   -0.9774   -0.0345 C   0  0  0  0  0  0  0  0  0  0  0  0
    0.7573   -0.9569   -0.1671 C   0  0  0  0  0  0  0  0  0  0  0  0
    0.0372    0.3169   -0.0630 C   0  0  0  0  0  0  0  0  0  0  0  0
   -1.4205    0.3982    0.0372 C   0  0  0  0  0  0  0  0  0  0  0  0
   -2.2262   -0.7058    0.2714 C   0  0  0  0  0  0  0  0  0  0  0  0
   -3.6157   -0.5922    0.1998 C   0  0  0  0  0  0  0  0  0  0  0  0
   -4.4525   -1.7158    0.3631 C   0  0  0  0  0  0  0  0  0  0  0  0
   -5.7983   -1.5722    0.2493 C   0  0  0  0  0  0  0  0  0  0  0  0
   -6.3852   -0.3321   -0.0039 C   0  0  0  0  0  0  0  0  0  0  0  0
   -5.6391    0.7939   -0.1442 C   0  0  0  0  0  0  0  0  0  0  0  0
   -4.2347    0.7132   -0.0425 C   0  0  0  0  0  0  0  0  0  0  0  0
   -3.4326    1.8478   -0.1459 C   0  0  0  0  0  0  0  0  0  0  0  0
   -2.0480    1.7215   -0.0839 C   0  0  0  0  0  0  0  0  0  0  0  0
   -1.2284    2.8726   -0.0919 C   0  0  0  0  0  0  0  0  0  0  0  0
    0.1151    2.7606   -0.0569 C   0  0  0  0  0  0  0  0  0  0  0  0
    0.7685    1.5152   -0.0509 C   0  0  0  0  0  0  0  0  0  0  0  0
    2.2407    1.4699   -0.0075 C   0  0  0  0  0  0  0  0  0  0  0  0
    2.9001    0.2250    0.0344 C   0  0  0  0  0  0  0  0  0  0  0  0
    4.3101    0.1795    0.1343 C   0  0  0  0  0  0  0  0  0  0  0  0
    4.9674   -1.0700    0.2373 C   0  0  0  0  0  0  0  0  0  0  0  0
    5.0356    1.3753    0.1252 C   0  0  0  0  0  0  0  0  0  0  0  0
    4.3763    2.5831    0.0425 C   0  0  0  0  0  0  0  0  0  0  0  0
    2.9946    2.6405   -0.0182 C   0  0  0  0  0  0  0  0  0  0  0  0
    0.1043   -2.1630   -0.4101 C   0  0  0  0  0  0  0  0  0  0  0  0
    0.7916   -3.3636   -0.3845 C   0  0  0  0  0  0  0  0  0  0  0  0
    2.1518   -3.4014   -0.1695 C   0  0  0  0  0  0  0  0  0  0  0  0
    4.7819   -3.1660    0.2709 H   0  0  0  0  0  0  0  0  0  0  0  0
   -1.7999   -1.6490    0.5843 H   0  0  0  0  0  0  0  0  0  0  0  0
   -4.0257   -2.6866    0.5690 H   0  0  0  0  0  0  0  0  0  0  0  0
   -6.4309   -2.4417    0.3521 H   0  0  0  0  0  0  0  0  0  0  0  0
   -7.4590   -0.2665   -0.0948 H   0  0  0  0  0  0  0  0  0  0  0  0
   -6.1187    1.7444   -0.3266 H   0  0  0  0  0  0  0  0  0  0  0  0
   -3.8825    2.8235   -0.2687 H   0  0  0  0  0  0  0  0  0  0  0  0
   -1.6834    3.8518   -0.1254 H   0  0  0  0  0  0  0  0  0  0  0  0
    0.7048    3.6649   -0.0316 H   0  0  0  0  0  0  0  0  0  0  0  0
    6.0393   -1.1011    0.3544 H   0  0  0  0  0  0  0  0  0  0  0  0
    6.1139    1.3529    0.1794 H   0  0  0  0  0  0  0  0  0  0  0  0
    4.9463    3.5007    0.0235 H   0  0  0  0  0  0  0  0  0  0  0  0
    2.5069    3.6020   -0.0737 H   0  0  0  0  0  0  0  0  0  0  0  0
   -0.9382   -2.1774   -0.6907 H   0  0  0  0  0  0  0  0  0  0  0  0
    0.2493   -4.2870   -0.5289 H   0  0  0  0  0  0  0  0  0  0  0  0
    2.6681   -4.3481   -0.1248 H   0  0  0  0  0  0  0  0  0  0  0  0
  1  2  2  0  0  0  0
  2  3  1  0  0  0  0
  3  4  1  0  0  0  0
  4  5  1  0  0  0  0
  5  6  2  0  0  0  0
  6  7  1  0  0  0  0
  7  8  2  0  0  0  0
  8  9  1  0  0  0  0
  9 10  2  0  0  0  0
 10 11  1  0  0  0  0
 11 12  2  0  0  0  0
 12 13  1  0  0  0  0
  8 13  1  0  0  0  0
 13 14  2  0  0  0  0
 14 15  1  0  0  0  0
  6 15  1  0  0  0  0
 15 16  2  0  0  0  0
 16 17  1  0  0  0  0
 17 18  2  0  0  0  0
  5 18  1  0  0  0  0
 18 19  1  0  0  0  0
 19 20  1  0  0  0  0
  3 20  2  0  0  0  0
 20 21  1  0  0  0  0
 21 22  2  0  0  0  0
  1 22  1  0  0  0  0
 21 23  1  0  0  0  0
 23 24  2  0  0  0  0
 24 25  1  0  0  0  0
 19 25  2  0  0  0  0
  4 26  2  0  0  0  0
 26 27  1  0  0  0  0
 27 28  2  0  0  0  0
  2 28  1  0  0  0  0
  1 29  1  0  0  0  0
  7 30  1  0  0  0  0
  9 31  1  0  0  0  0
 10 32  1  0  0  0  0
 11 33  1  0  0  0  0
 12 34  1  0  0  0  0
 14 35  1  0  0  0  0
 16 36  1  0  0  0  0
 17 37  1  0  0  0  0
 22 38  1  0  0  0  0
 23 39  1  0  0  0  0
 24 40  1  0  0  0  0
 25 41  1  0  0  0  0
 26 42  1  0  0  0  0
 27 43  1  0  0  0  0
 28 44  1  0  0  0  0
M  END
$$$$
