C28H16
APtclcactv01171906263D 0   0.00000     0.00000
 
 44 50  0  0  0  0  0  0  0  0999 V2000
   -3.5496   -2.8754   -0.0000 C   0  0  0  0  0  0  0  0  0  0  0  0
   -4.9126   -2.8751   -0.0005 C   0  0  0  0  0  0  0  0  0  0  0  0
   -5.6249   -1.6814   -0.0013 C   0  0  0  0  0  0  0  0  0  0  0  0
   -4.9756   -0.4801   -0.0022 C   0  0  0  0  0  0  0  0  0  0  0  0
   -3.5790   -0.4447   -0.0018 C   0  0  0  0  0  0  0  0  0  0  0  0
   -2.8501   -1.6563   -0.0004 C   0  0  0  0  0  0  0  0  0  0  0  0
   -1.4400   -1.6450    0.0005 C   0  0  0  0  0  0  0  0  0  0  0  0
   -0.7392   -0.4624    0.0001 C   0  0  0  0  0  0  0  0  0  0  0  0
    0.7392   -0.4625    0.0006 C   0  0  0  0  0  0  0  0  0  0  0  0
    1.4401   -1.6449    0.0013 C   0  0  0  0  0  0  0  0  0  0  0  0
    2.8501   -1.6563    0.0013 C   0  0  0  0  0  0  0  0  0  0  0  0
    3.5790   -0.4448    0.0000 C   0  0  0  0  0  0  0  0  0  0  0  0
    2.8577    0.8327   -0.0007 C   0  0  0  0  0  0  0  0  0  0  0  0
    3.5361    2.0535   -0.0014 C   0  0  0  0  0  0  0  0  0  0  0  0
    2.8268    3.2354   -0.0017 C   0  0  0  0  0  0  0  0  0  0  0  0
    1.4414    3.2340   -0.0013 C   0  0  0  0  0  0  0  0  0  0  0  0
    0.7380    2.0346   -0.0001 C   0  0  0  0  0  0  0  0  0  0  0  0
   -0.7381    2.0346    0.0013 C   0  0  0  0  0  0  0  0  0  0  0  0
   -1.4413    3.2341    0.0010 C   0  0  0  0  0  0  0  0  0  0  0  0
   -2.8267    3.2353    0.0028 C   0  0  0  0  0  0  0  0  0  0  0  0
   -3.5359    2.0536    0.0045 C   0  0  0  0  0  0  0  0  0  0  0  0
   -2.8577    0.8328   -0.0022 C   0  0  0  0  0  0  0  0  0  0  0  0
   -1.4480    0.8186   -0.0012 C   0  0  0  0  0  0  0  0  0  0  0  0
    1.4480    0.8186   -0.0002 C   0  0  0  0  0  0  0  0  0  0  0  0
    4.9755   -0.4801   -0.0009 C   0  0  0  0  0  0  0  0  0  0  0  0
    5.6250   -1.6814   -0.0006 C   0  0  0  0  0  0  0  0  0  0  0  0
    4.9125   -2.8753    0.0006 C   0  0  0  0  0  0  0  0  0  0  0  0
    3.5494   -2.8754    0.0020 C   0  0  0  0  0  0  0  0  0  0  0  0
   -3.0084   -3.8101    0.0052 H   0  0  0  0  0  0  0  0  0  0  0  0
   -5.4460   -3.8142   -0.0005 H   0  0  0  0  0  0  0  0  0  0  0  0
   -6.7047   -1.7044   -0.0017 H   0  0  0  0  0  0  0  0  0  0  0  0
   -5.5403    0.4405   -0.0036 H   0  0  0  0  0  0  0  0  0  0  0  0
   -0.9016   -2.5812    0.0018 H   0  0  0  0  0  0  0  0  0  0  0  0
    0.9016   -2.5811    0.0023 H   0  0  0  0  0  0  0  0  0  0  0  0
    4.6160    2.0715   -0.0014 H   0  0  0  0  0  0  0  0  0  0  0  0
    3.3584    4.1755   -0.0019 H   0  0  0  0  0  0  0  0  0  0  0  0
    0.9041    4.1709   -0.0015 H   0  0  0  0  0  0  0  0  0  0  0  0
   -0.9041    4.1709   -0.0003 H   0  0  0  0  0  0  0  0  0  0  0  0
   -3.3584    4.1753    0.0032 H   0  0  0  0  0  0  0  0  0  0  0  0
   -4.6158    2.0716    0.0060 H   0  0  0  0  0  0  0  0  0  0  0  0
    5.5402    0.4405   -0.0022 H   0  0  0  0  0  0  0  0  0  0  0  0
    6.7047   -1.7043   -0.0017 H   0  0  0  0  0  0  0  0  0  0  0  0
    5.4458   -3.8144    0.0008 H   0  0  0  0  0  0  0  0  0  0  0  0
    3.0081   -3.8100    0.0033 H   0  0  0  0  0  0  0  0  0  0  0  0
  1  2  2  0  0  0  0
  2  3  1  0  0  0  0
  3  4  2  0  0  0  0
  4  5  1  0  0  0  0
  5  6  2  0  0  0  0
  1  6  1  0  0  0  0
  6  7  1  0  0  0  0
  7  8  2  0  0  0  0
  8  9  1  0  0  0  0
  9 10  1  0  0  0  0
 10 11  2  0  0  0  0
 11 12  1  0  0  0  0
 12 13  2  0  0  0  0
 13 14  1  0  0  0  0
 14 15  2  0  0  0  0
 15 16  1  0  0  0  0
 16 17  2  0  0  0  0
 17 18  1  0  0  0  0
 18 19  1  0  0  0  0
 19 20  2  0  0  0  0
 20 21  1  0  0  0  0
 21 22  2  0  0  0  0
  5 22  1  0  0  0  0
 22 23  1  0  0  0  0
 18 23  2  0  0  0  0
  8 23  1  0  0  0  0
 17 24  1  0  0  0  0
 13 24  1  0  0  0  0
  9 24  2  0  0  0  0
 12 25  1  0  0  0  0
 25 26  2  0  0  0  0
 26 27  1  0  0  0  0
 27 28  2  0  0  0  0
 11 28  1  0  0  0  0
  1 29  1  0  0  0  0
  2 30  1  0  0  0  0
  3 31  1  0  0  0  0
  4 32  1  0  0  0  0
  7 33  1  0  0  0  0
 10 34  1  0  0  0  0
 14 35  1  0  0  0  0
 15 36  1  0  0  0  0
 16 37  1  0  0  0  0
 19 38  1  0  0  0  0
 20 39  1  0  0  0  0
 21 40  1  0  0  0  0
 25 41  1  0  0  0  0
 26 42  1  0  0  0  0
 27 43  1  0  0  0  0
 28 44  1  0  0  0  0
M  END
$$$$
