C26H16
APtclcactv01171906253D 0   0.00000     0.00000
 
 42 47  0  0  0  0  0  0  0  0999 V2000
    1.2073   -2.6320    0.5501 C   0  0  0  0  0  0  0  0  0  0  0  0
    1.8815   -3.8125    0.4462 C   0  0  0  0  0  0  0  0  0  0  0  0
    3.2038   -3.8452    0.0129 C   0  0  0  0  0  0  0  0  0  0  0  0
    3.8687   -2.6900   -0.2679 C   0  0  0  0  0  0  0  0  0  0  0  0
    3.2095   -1.4593   -0.1267 C   0  0  0  0  0  0  0  0  0  0  0  0
    1.8203   -1.4364    0.1562 C   0  0  0  0  0  0  0  0  0  0  0  0
    1.1139   -0.2145    0.0446 C   0  0  0  0  0  0  0  0  0  0  0  0
   -0.3545   -0.1635   -0.0232 C   0  0  0  0  0  0  0  0  0  0  0  0
   -1.0941   -1.3201   -0.2203 C   0  0  0  0  0  0  0  0  0  0  0  0
   -2.4908   -1.2868   -0.1664 C   0  0  0  0  0  0  0  0  0  0  0  0
   -3.2685   -2.4485   -0.3267 C   0  0  0  0  0  0  0  0  0  0  0  0
   -4.6231   -2.3635   -0.2362 C   0  0  0  0  0  0  0  0  0  0  0  0
   -5.2663   -1.1515    0.0038 C   0  0  0  0  0  0  0  0  0  0  0  0
   -4.5721    0.0096    0.1492 C   0  0  0  0  0  0  0  0  0  0  0  0
   -3.1692   -0.0084    0.0558 C   0  0  0  0  0  0  0  0  0  0  0  0
   -2.4035    1.1580    0.1468 C   0  0  0  0  0  0  0  0  0  0  0  0
   -1.0218    1.0876    0.0751 C   0  0  0  0  0  0  0  0  0  0  0  0
   -0.2365    2.3363    0.0536 C   0  0  0  0  0  0  0  0  0  0  0  0
    1.1665    2.2788   -0.0072 C   0  0  0  0  0  0  0  0  0  0  0  0
    1.8526    0.9757   -0.0245 C   0  0  0  0  0  0  0  0  0  0  0  0
    3.2538    0.9337   -0.1431 C   0  0  0  0  0  0  0  0  0  0  0  0
    3.9177   -0.2456   -0.2168 C   0  0  0  0  0  0  0  0  0  0  0  0
    1.9021    3.4657   -0.0443 C   0  0  0  0  0  0  0  0  0  0  0  0
    1.2531    4.6800   -0.0154 C   0  0  0  0  0  0  0  0  0  0  0  0
   -0.1310    4.7358    0.0505 C   0  0  0  0  0  0  0  0  0  0  0  0
   -0.8754    3.5769    0.0842 C   0  0  0  0  0  0  0  0  0  0  0  0
    0.2186   -2.6279    0.9854 H   0  0  0  0  0  0  0  0  0  0  0  0
    1.3816   -4.7349    0.7018 H   0  0  0  0  0  0  0  0  0  0  0  0
    3.7063   -4.7935   -0.1035 H   0  0  0  0  0  0  0  0  0  0  0  0
    4.8960   -2.7219   -0.5993 H   0  0  0  0  0  0  0  0  0  0  0  0
   -0.6085   -2.2510   -0.4731 H   0  0  0  0  0  0  0  0  0  0  0  0
   -2.7940   -3.3995   -0.5182 H   0  0  0  0  0  0  0  0  0  0  0  0
   -5.2149   -3.2593   -0.3527 H   0  0  0  0  0  0  0  0  0  0  0  0
   -6.3437   -1.1331    0.0766 H   0  0  0  0  0  0  0  0  0  0  0  0
   -5.0948    0.9360    0.3356 H   0  0  0  0  0  0  0  0  0  0  0  0
   -2.8974    2.1100    0.2746 H   0  0  0  0  0  0  0  0  0  0  0  0
    3.8183    1.8535   -0.1735 H   0  0  0  0  0  0  0  0  0  0  0  0
    4.9898   -0.2544   -0.3421 H   0  0  0  0  0  0  0  0  0  0  0  0
    2.9803    3.4407   -0.0940 H   0  0  0  0  0  0  0  0  0  0  0  0
    1.8267    5.5945   -0.0448 H   0  0  0  0  0  0  0  0  0  0  0  0
   -0.6295    5.6935    0.0739 H   0  0  0  0  0  0  0  0  0  0  0  0
   -1.9521    3.6383    0.1321 H   0  0  0  0  0  0  0  0  0  0  0  0
  1  2  2  0  0  0  0
  2  3  1  0  0  0  0
  3  4  2  0  0  0  0
  4  5  1  0  0  0  0
  5  6  1  0  0  0  0
  1  6  1  0  0  0  0
  6  7  2  0  0  0  0
  7  8  1  0  0  0  0
  8  9  2  0  0  0  0
  9 10  1  0  0  0  0
 10 11  2  0  0  0  0
 11 12  1  0  0  0  0
 12 13  2  0  0  0  0
 13 14  1  0  0  0  0
 14 15  2  0  0  0  0
 10 15  1  0  0  0  0
 15 16  1  0  0  0  0
 16 17  2  0  0  0  0
  8 17  1  0  0  0  0
 17 18  1  0  0  0  0
 18 19  2  0  0  0  0
 19 20  1  0  0  0  0
  7 20  1  0  0  0  0
 20 21  2  0  0  0  0
 21 22  1  0  0  0  0
  5 22  2  0  0  0  0
 19 23  1  0  0  0  0
 23 24  2  0  0  0  0
 24 25  1  0  0  0  0
 25 26  2  0  0  0  0
 18 26  1  0  0  0  0
  1 27  1  0  0  0  0
  2 28  1  0  0  0  0
  3 29  1  0  0  0  0
  4 30  1  0  0  0  0
  9 31  1  0  0  0  0
 11 32  1  0  0  0  0
 12 33  1  0  0  0  0
 13 34  1  0  0  0  0
 14 35  1  0  0  0  0
 16 36  1  0  0  0  0
 21 37  1  0  0  0  0
 22 38  1  0  0  0  0
 23 39  1  0  0  0  0
 24 40  1  0  0  0  0
 25 41  1  0  0  0  0
 26 42  1  0  0  0  0
M  END
$$$$
