C26H14
APtclcactv01171906263D 0   0.00000     0.00000
 
 40 46  0  0  0  0  0  0  0  0999 V2000
   -4.9094    1.2044    0.0004 C   0  0  0  0  0  0  0  0  0  0  0  0
   -5.5851   -0.0004   -0.0008 C   0  0  0  0  0  0  0  0  0  0  0  0
   -4.9091   -1.2050   -0.0015 C   0  0  0  0  0  0  0  0  0  0  0  0
   -3.5107   -1.2255   -0.0011 C   0  0  0  0  0  0  0  0  0  0  0  0
   -2.7883   -2.4417   -0.0008 C   0  0  0  0  0  0  0  0  0  0  0  0
   -1.4336   -2.4407    0.0003 C   0  0  0  0  0  0  0  0  0  0  0  0
   -0.7072   -1.2321    0.0007 C   0  0  0  0  0  0  0  0  0  0  0  0
    0.7072   -1.2322    0.0010 C   0  0  0  0  0  0  0  0  0  0  0  0
    1.4335   -2.4407    0.0009 C   0  0  0  0  0  0  0  0  0  0  0  0
    2.7884   -2.4417    0.0005 C   0  0  0  0  0  0  0  0  0  0  0  0
    3.5107   -1.2255    0.0004 C   0  0  0  0  0  0  0  0  0  0  0  0
    2.8077    0.0001    0.0008 C   0  0  0  0  0  0  0  0  0  0  0  0
    3.5110    1.2255   -0.0002 C   0  0  0  0  0  0  0  0  0  0  0  0
    2.7887    2.4417   -0.0006 C   0  0  0  0  0  0  0  0  0  0  0  0
    1.4339    2.4411   -0.0003 C   0  0  0  0  0  0  0  0  0  0  0  0
    0.7071    1.2327    0.0008 C   0  0  0  0  0  0  0  0  0  0  0  0
   -0.7072    1.2326    0.0012 C   0  0  0  0  0  0  0  0  0  0  0  0
   -1.4339    2.4410    0.0004 C   0  0  0  0  0  0  0  0  0  0  0  0
   -2.7887    2.4417    0.0006 C   0  0  0  0  0  0  0  0  0  0  0  0
   -3.5110    1.2254    0.0005 C   0  0  0  0  0  0  0  0  0  0  0  0
   -2.8077    0.0000   -0.0004 C   0  0  0  0  0  0  0  0  0  0  0  0
   -1.3990    0.0002    0.0002 C   0  0  0  0  0  0  0  0  0  0  0  0
    1.3990    0.0003    0.0011 C   0  0  0  0  0  0  0  0  0  0  0  0
    4.9095    1.2045   -0.0012 C   0  0  0  0  0  0  0  0  0  0  0  0
    5.5852   -0.0004   -0.0016 C   0  0  0  0  0  0  0  0  0  0  0  0
    4.9092   -1.2051   -0.0007 C   0  0  0  0  0  0  0  0  0  0  0  0
   -5.4622    2.1322   -0.0032 H   0  0  0  0  0  0  0  0  0  0  0  0
   -6.6651   -0.0006   -0.0009 H   0  0  0  0  0  0  0  0  0  0  0  0
   -5.4616   -2.1330   -0.0020 H   0  0  0  0  0  0  0  0  0  0  0  0
   -3.3222   -3.3805   -0.0010 H   0  0  0  0  0  0  0  0  0  0  0  0
   -0.9015   -3.3805    0.0013 H   0  0  0  0  0  0  0  0  0  0  0  0
    0.9014   -3.3806    0.0014 H   0  0  0  0  0  0  0  0  0  0  0  0
    3.3222   -3.3805    0.0008 H   0  0  0  0  0  0  0  0  0  0  0  0
    3.3228    3.3805   -0.0007 H   0  0  0  0  0  0  0  0  0  0  0  0
    0.9020    3.3810   -0.0006 H   0  0  0  0  0  0  0  0  0  0  0  0
   -0.9021    3.3810    0.0001 H   0  0  0  0  0  0  0  0  0  0  0  0
   -3.3227    3.3804    0.0003 H   0  0  0  0  0  0  0  0  0  0  0  0
    5.4623    2.1323   -0.0019 H   0  0  0  0  0  0  0  0  0  0  0  0
    6.6652   -0.0005   -0.0031 H   0  0  0  0  0  0  0  0  0  0  0  0
    5.4617   -2.1331   -0.0003 H   0  0  0  0  0  0  0  0  0  0  0  0
  1  2  2  0  0  0  0
  2  3  1  0  0  0  0
  3  4  2  0  0  0  0
  4  5  1  0  0  0  0
  5  6  2  0  0  0  0
  6  7  1  0  0  0  0
  7  8  2  0  0  0  0
  8  9  1  0  0  0  0
  9 10  2  0  0  0  0
 10 11  1  0  0  0  0
 11 12  2  0  0  0  0
 12 13  1  0  0  0  0
 13 14  1  0  0  0  0
 14 15  2  0  0  0  0
 15 16  1  0  0  0  0
 16 17  1  0  0  0  0
 17 18  1  0  0  0  0
 18 19  2  0  0  0  0
 19 20  1  0  0  0  0
  1 20  1  0  0  0  0
 20 21  2  0  0  0  0
  4 21  1  0  0  0  0
 21 22  1  0  0  0  0
 17 22  2  0  0  0  0
  7 22  1  0  0  0  0
 16 23  2  0  0  0  0
 12 23  1  0  0  0  0
  8 23  1  0  0  0  0
 13 24  2  0  0  0  0
 24 25  1  0  0  0  0
 25 26  2  0  0  0  0
 11 26  1  0  0  0  0
  1 27  1  0  0  0  0
  2 28  1  0  0  0  0
  3 29  1  0  0  0  0
  5 30  1  0  0  0  0
  6 31  1  0  0  0  0
  9 32  1  0  0  0  0
 10 33  1  0  0  0  0
 14 34  1  0  0  0  0
 15 35  1  0  0  0  0
 18 36  1  0  0  0  0
 19 37  1  0  0  0  0
 24 38  1  0  0  0  0
 25 39  1  0  0  0  0
 26 40  1  0  0  0  0
M  END
$$$$
