C30H16
APtclcactv01171906263D 0   0.00000     0.00000
 
 46 53  0  0  0  0  0  0  0  0999 V2000
   -1.2176   -3.7255    0.0002 C   0  0  0  0  0  0  0  0  0  0  0  0
   -2.5806   -3.7871    0.0012 C   0  0  0  0  0  0  0  0  0  0  0  0
   -3.3520   -2.6350    0.0014 C   0  0  0  0  0  0  0  0  0  0  0  0
   -2.7485   -1.3830    0.0007 C   0  0  0  0  0  0  0  0  0  0  0  0
   -3.5721   -0.1601    0.0005 C   0  0  0  0  0  0  0  0  0  0  0  0
   -2.9584    1.1066    0.0001 C   0  0  0  0  0  0  0  0  0  0  0  0
   -1.4869    1.1967    0.0003 C   0  0  0  0  0  0  0  0  0  0  0  0
   -0.7018   -0.0374    0.0008 C   0  0  0  0  0  0  0  0  0  0  0  0
    0.7018    0.0361    0.0007 C   0  0  0  0  0  0  0  0  0  0  0  0
    1.3386    1.2942    0.0010 C   0  0  0  0  0  0  0  0  0  0  0  0
    2.7478    1.3827    0.0005 C   0  0  0  0  0  0  0  0  0  0  0  0
    3.5717    0.1601   -0.0005 C   0  0  0  0  0  0  0  0  0  0  0  0
    4.9644    0.2482   -0.0012 C   0  0  0  0  0  0  0  0  0  0  0  0
    5.7257   -0.9002   -0.0018 C   0  0  0  0  0  0  0  0  0  0  0  0
    5.1201   -2.1476   -0.0017 C   0  0  0  0  0  0  0  0  0  0  0  0
    3.7459   -2.2570   -0.0014 C   0  0  0  0  0  0  0  0  0  0  0  0
    2.9587   -1.1070   -0.0004 C   0  0  0  0  0  0  0  0  0  0  0  0
    1.4872   -1.1979    0.0009 C   0  0  0  0  0  0  0  0  0  0  0  0
    0.8426   -2.4174    0.0013 C   0  0  0  0  0  0  0  0  0  0  0  0
   -0.5643   -2.4809   -0.0006 C   0  0  0  0  0  0  0  0  0  0  0  0
   -1.3391   -1.2952   -0.0002 C   0  0  0  0  0  0  0  0  0  0  0  0
    3.3511    2.6348    0.0006 C   0  0  0  0  0  0  0  0  0  0  0  0
    2.5797    3.7868    0.0011 C   0  0  0  0  0  0  0  0  0  0  0  0
    1.2168    3.7247    0.0014 C   0  0  0  0  0  0  0  0  0  0  0  0
    0.5639    2.4800    0.0014 C   0  0  0  0  0  0  0  0  0  0  0  0
   -0.8429    2.4164    0.0006 C   0  0  0  0  0  0  0  0  0  0  0  0
   -3.7440    2.2576   -0.0016 C   0  0  0  0  0  0  0  0  0  0  0  0
   -5.1183    2.1498   -0.0028 C   0  0  0  0  0  0  0  0  0  0  0  0
   -5.7249    0.9028   -0.0024 C   0  0  0  0  0  0  0  0  0  0  0  0
   -4.9648   -0.2465    0.0002 C   0  0  0  0  0  0  0  0  0  0  0  0
   -0.6382   -4.6369    0.0046 H   0  0  0  0  0  0  0  0  0  0  0  0
   -3.0676   -4.7511    0.0014 H   0  0  0  0  0  0  0  0  0  0  0  0
   -4.4293   -2.7111    0.0018 H   0  0  0  0  0  0  0  0  0  0  0  0
    5.4449    1.2154   -0.0017 H   0  0  0  0  0  0  0  0  0  0  0  0
    6.8033   -0.8282   -0.0027 H   0  0  0  0  0  0  0  0  0  0  0  0
    5.7291   -3.0395   -0.0021 H   0  0  0  0  0  0  0  0  0  0  0  0
    3.2805   -3.2316   -0.0017 H   0  0  0  0  0  0  0  0  0  0  0  0
    1.4207   -3.3296    0.0004 H   0  0  0  0  0  0  0  0  0  0  0  0
    4.4284    2.7108    0.0007 H   0  0  0  0  0  0  0  0  0  0  0  0
    3.0665    4.7508    0.0015 H   0  0  0  0  0  0  0  0  0  0  0  0
    0.6371    4.6359    0.0018 H   0  0  0  0  0  0  0  0  0  0  0  0
   -1.4213    3.3285   -0.0004 H   0  0  0  0  0  0  0  0  0  0  0  0
   -3.2774    3.2316   -0.0016 H   0  0  0  0  0  0  0  0  0  0  0  0
   -5.7265    3.0422   -0.0038 H   0  0  0  0  0  0  0  0  0  0  0  0
   -6.8025    0.8319   -0.0034 H   0  0  0  0  0  0  0  0  0  0  0  0
   -5.4465   -1.2132    0.0005 H   0  0  0  0  0  0  0  0  0  0  0  0
  1  2  2  0  0  0  0
  2  3  1  0  0  0  0
  3  4  2  0  0  0  0
  4  5  1  0  0  0  0
  5  6  2  0  0  0  0
  6  7  1  0  0  0  0
  7  8  2  0  0  0  0
  8  9  1  0  0  0  0
  9 10  2  0  0  0  0
 10 11  1  0  0  0  0
 11 12  1  0  0  0  0
 12 13  2  0  0  0  0
 13 14  1  0  0  0  0
 14 15  2  0  0  0  0
 15 16  1  0  0  0  0
 16 17  2  0  0  0  0
 12 17  1  0  0  0  0
 17 18  1  0  0  0  0
  9 18  1  0  0  0  0
 18 19  2  0  0  0  0
 19 20  1  0  0  0  0
  1 20  1  0  0  0  0
 20 21  2  0  0  0  0
  4 21  1  0  0  0  0
  8 21  1  0  0  0  0
 11 22  2  0  0  0  0
 22 23  1  0  0  0  0
 23 24  2  0  0  0  0
 24 25  1  0  0  0  0
 10 25  1  0  0  0  0
 25 26  2  0  0  0  0
  7 26  1  0  0  0  0
  6 27  1  0  0  0  0
 27 28  2  0  0  0  0
 28 29  1  0  0  0  0
 29 30  2  0  0  0  0
  5 30  1  0  0  0  0
  1 31  1  0  0  0  0
  2 32  1  0  0  0  0
  3 33  1  0  0  0  0
 13 34  1  0  0  0  0
 14 35  1  0  0  0  0
 15 36  1  0  0  0  0
 16 37  1  0  0  0  0
 19 38  1  0  0  0  0
 22 39  1  0  0  0  0
 23 40  1  0  0  0  0
 24 41  1  0  0  0  0
 26 42  1  0  0  0  0
 27 43  1  0  0  0  0
 28 44  1  0  0  0  0
 29 45  1  0  0  0  0
 30 46  1  0  0  0  0
M  END
$$$$
