C28H16
APtclcactv01171906263D 0   0.00000     0.00000
 
 44 50  0  0  0  0  0  0  0  0999 V2000
    5.6728   -1.4356   -0.0020 C   0  0  0  0  0  0  0  0  0  0  0  0
    4.2789   -1.3109   -0.0010 C   0  0  0  0  0  0  0  0  0  0  0  0
    3.4338   -2.4439   -0.0005 C   0  0  0  0  0  0  0  0  0  0  0  0
    2.0848   -2.3040    0.0005 C   0  0  0  0  0  0  0  0  0  0  0  0
    1.4927   -1.0262    0.0016 C   0  0  0  0  0  0  0  0  0  0  0  0
    0.0431   -0.8485    0.0022 C   0  0  0  0  0  0  0  0  0  0  0  0
   -0.8125   -1.9634    0.0018 C   0  0  0  0  0  0  0  0  0  0  0  0
   -2.1601   -1.8185    0.0017 C   0  0  0  0  0  0  0  0  0  0  0  0
   -2.7568   -0.5474    0.0014 C   0  0  0  0  0  0  0  0  0  0  0  0
   -4.2131   -0.3926   -0.0000 C   0  0  0  0  0  0  0  0  0  0  0  0
   -4.7590    0.9121   -0.0004 C   0  0  0  0  0  0  0  0  0  0  0  0
   -3.9000    2.0318    0.0003 C   0  0  0  0  0  0  0  0  0  0  0  0
   -2.5549    1.8833    0.0007 C   0  0  0  0  0  0  0  0  0  0  0  0
   -1.9575    0.6111    0.0022 C   0  0  0  0  0  0  0  0  0  0  0  0
   -0.4977    0.4598    0.0027 C   0  0  0  0  0  0  0  0  0  0  0  0
    0.3281    1.5858    0.0014 C   0  0  0  0  0  0  0  0  0  0  0  0
    1.7105    1.4546    0.0017 C   0  0  0  0  0  0  0  0  0  0  0  0
    2.3088    0.1204    0.0016 C   0  0  0  0  0  0  0  0  0  0  0  0
    3.7081   -0.0172    0.0001 C   0  0  0  0  0  0  0  0  0  0  0  0
    4.5330    1.1295   -0.0008 C   0  0  0  0  0  0  0  0  0  0  0  0
    5.9200    0.9617   -0.0023 C   0  0  0  0  0  0  0  0  0  0  0  0
    6.4677   -0.3077   -0.0021 C   0  0  0  0  0  0  0  0  0  0  0  0
    3.9330    2.4606   -0.0006 C   0  0  0  0  0  0  0  0  0  0  0  0
    2.5910    2.6216   -0.0001 C   0  0  0  0  0  0  0  0  0  0  0  0
   -6.1536    1.0692   -0.0020 C   0  0  0  0  0  0  0  0  0  0  0  0
   -6.9579   -0.0313   -0.0030 C   0  0  0  0  0  0  0  0  0  0  0  0
   -6.4170   -1.3128   -0.0021 C   0  0  0  0  0  0  0  0  0  0  0  0
   -5.0651   -1.5003   -0.0016 C   0  0  0  0  0  0  0  0  0  0  0  0
    6.1268   -2.4156    0.0017 H   0  0  0  0  0  0  0  0  0  0  0  0
    3.8675   -3.4330   -0.0013 H   0  0  0  0  0  0  0  0  0  0  0  0
    1.4572   -3.1829    0.0002 H   0  0  0  0  0  0  0  0  0  0  0  0
   -0.3874   -2.9562    0.0012 H   0  0  0  0  0  0  0  0  0  0  0  0
   -2.7872   -2.6978    0.0013 H   0  0  0  0  0  0  0  0  0  0  0  0
   -4.3238    3.0252    0.0002 H   0  0  0  0  0  0  0  0  0  0  0  0
   -1.9266    2.7618    0.0005 H   0  0  0  0  0  0  0  0  0  0  0  0
   -0.1140    2.5712   -0.0003 H   0  0  0  0  0  0  0  0  0  0  0  0
    6.5667    1.8268   -0.0034 H   0  0  0  0  0  0  0  0  0  0  0  0
    7.5420   -0.4191   -0.0029 H   0  0  0  0  0  0  0  0  0  0  0  0
    4.5723    3.3311   -0.0013 H   0  0  0  0  0  0  0  0  0  0  0  0
    2.1679    3.6153   -0.0000 H   0  0  0  0  0  0  0  0  0  0  0  0
   -6.5878    2.0581   -0.0019 H   0  0  0  0  0  0  0  0  0  0  0  0
   -8.0306    0.0935   -0.0042 H   0  0  0  0  0  0  0  0  0  0  0  0
   -7.0745   -2.1695   -0.0026 H   0  0  0  0  0  0  0  0  0  0  0  0
   -4.6558   -2.4997   -0.0009 H   0  0  0  0  0  0  0  0  0  0  0  0
  1  2  2  0  0  0  0
  2  3  1  0  0  0  0
  3  4  2  0  0  0  0
  4  5  1  0  0  0  0
  5  6  1  0  0  0  0
  6  7  2  0  0  0  0
  7  8  1  0  0  0  0
  8  9  2  0  0  0  0
  9 10  1  0  0  0  0
 10 11  2  0  0  0  0
 11 12  1  0  0  0  0
 12 13  2  0  0  0  0
 13 14  1  0  0  0  0
  9 14  1  0  0  0  0
 14 15  2  0  0  0  0
  6 15  1  0  0  0  0
 15 16  1  0  0  0  0
 16 17  2  0  0  0  0
 17 18  1  0  0  0  0
  5 18  2  0  0  0  0
 18 19  1  0  0  0  0
  2 19  1  0  0  0  0
 19 20  2  0  0  0  0
 20 21  1  0  0  0  0
 21 22  2  0  0  0  0
  1 22  1  0  0  0  0
 20 23  1  0  0  0  0
 23 24  2  0  0  0  0
 17 24  1  0  0  0  0
 11 25  1  0  0  0  0
 25 26  2  0  0  0  0
 26 27  1  0  0  0  0
 27 28  2  0  0  0  0
 10 28  1  0  0  0  0
  1 29  1  0  0  0  0
  3 30  1  0  0  0  0
  4 31  1  0  0  0  0
  7 32  1  0  0  0  0
  8 33  1  0  0  0  0
 12 34  1  0  0  0  0
 13 35  1  0  0  0  0
 16 36  1  0  0  0  0
 21 37  1  0  0  0  0
 22 38  1  0  0  0  0
 23 39  1  0  0  0  0
 24 40  1  0  0  0  0
 25 41  1  0  0  0  0
 26 42  1  0  0  0  0
 27 43  1  0  0  0  0
 28 44  1  0  0  0  0
M  END
$$$$
