C28H16
APtclcactv01171906253D 0   0.00000     0.00000
 
 44 50  0  0  0  0  0  0  0  0999 V2000
   -5.0874    0.5847    0.0943 C   0  0  0  0  0  0  0  0  0  0  0  0
   -5.5608   -0.6423    0.4332 C   0  0  0  0  0  0  0  0  0  0  0  0
   -4.6973   -1.6926    0.7364 C   0  0  0  0  0  0  0  0  0  0  0  0
   -3.3450   -1.5496    0.6693 C   0  0  0  0  0  0  0  0  0  0  0  0
   -2.7896   -0.3388    0.2336 C   0  0  0  0  0  0  0  0  0  0  0  0
   -3.6955    0.8002    0.0341 C   0  0  0  0  0  0  0  0  0  0  0  0
   -3.1767    2.0755   -0.1913 C   0  0  0  0  0  0  0  0  0  0  0  0
   -1.7947    2.2621   -0.2540 C   0  0  0  0  0  0  0  0  0  0  0  0
   -1.2444    3.5489   -0.4229 C   0  0  0  0  0  0  0  0  0  0  0  0
    0.1064    3.7014   -0.5065 C   0  0  0  0  0  0  0  0  0  0  0  0
    0.9719    2.6206   -0.4161 C   0  0  0  0  0  0  0  0  0  0  0  0
    0.5062    1.3313   -0.2124 C   0  0  0  0  0  0  0  0  0  0  0  0
    1.4175    0.1903   -0.0531 C   0  0  0  0  0  0  0  0  0  0  0  0
    2.7937    0.3428    0.2034 C   0  0  0  0  0  0  0  0  0  0  0  0
    3.6947   -0.8021    0.0365 C   0  0  0  0  0  0  0  0  0  0  0  0
    3.1767   -2.0791   -0.1799 C   0  0  0  0  0  0  0  0  0  0  0  0
    1.7941   -2.2605   -0.2511 C   0  0  0  0  0  0  0  0  0  0  0  0
    1.2426   -3.5465   -0.4285 C   0  0  0  0  0  0  0  0  0  0  0  0
   -0.1073   -3.6987   -0.5145 C   0  0  0  0  0  0  0  0  0  0  0  0
   -0.9737   -2.6172   -0.4198 C   0  0  0  0  0  0  0  0  0  0  0  0
   -0.5086   -1.3289   -0.2101 C   0  0  0  0  0  0  0  0  0  0  0  0
   -1.4167   -0.1887   -0.0462 C   0  0  0  0  0  0  0  0  0  0  0  0
   -0.8958    1.1118   -0.1704 C   0  0  0  0  0  0  0  0  0  0  0  0
    0.8942   -1.1101   -0.1616 C   0  0  0  0  0  0  0  0  0  0  0  0
    5.0891   -0.5882    0.0953 C   0  0  0  0  0  0  0  0  0  0  0  0
    5.5621    0.6389    0.4349 C   0  0  0  0  0  0  0  0  0  0  0  0
    4.6989    1.6881    0.7408 C   0  0  0  0  0  0  0  0  0  0  0  0
    3.3463    1.5481    0.6646 C   0  0  0  0  0  0  0  0  0  0  0  0
   -5.7696    1.3906   -0.1349 H   0  0  0  0  0  0  0  0  0  0  0  0
   -6.6268   -0.8071    0.4644 H   0  0  0  0  0  0  0  0  0  0  0  0
   -5.1100   -2.6448    1.0343 H   0  0  0  0  0  0  0  0  0  0  0  0
   -2.7147   -2.3637    0.9933 H   0  0  0  0  0  0  0  0  0  0  0  0
   -3.8402    2.9175   -0.3162 H   0  0  0  0  0  0  0  0  0  0  0  0
   -1.8928    4.4098   -0.4839 H   0  0  0  0  0  0  0  0  0  0  0  0
    0.5160    4.6911   -0.6462 H   0  0  0  0  0  0  0  0  0  0  0  0
    2.0289    2.7968   -0.5493 H   0  0  0  0  0  0  0  0  0  0  0  0
    3.8396   -2.9246   -0.2948 H   0  0  0  0  0  0  0  0  0  0  0  0
    1.8902   -4.4078   -0.4922 H   0  0  0  0  0  0  0  0  0  0  0  0
   -0.5187   -4.6869   -0.6596 H   0  0  0  0  0  0  0  0  0  0  0  0
   -2.0306   -2.7915   -0.5558 H   0  0  0  0  0  0  0  0  0  0  0  0
    5.7720   -1.3936   -0.1336 H   0  0  0  0  0  0  0  0  0  0  0  0
    6.6282    0.8064    0.4634 H   0  0  0  0  0  0  0  0  0  0  0  0
    5.1102    2.6392    1.0453 H   0  0  0  0  0  0  0  0  0  0  0  0
    2.7111    2.3537    1.0007 H   0  0  0  0  0  0  0  0  0  0  0  0
  1  2  2  0  0  0  0
  2  3  1  0  0  0  0
  3  4  2  0  0  0  0
  4  5  1  0  0  0  0
  5  6  1  0  0  0  0
  1  6  1  0  0  0  0
  6  7  2  0  0  0  0
  7  8  1  0  0  0  0
  8  9  2  0  0  0  0
  9 10  1  0  0  0  0
 10 11  2  0  0  0  0
 11 12  1  0  0  0  0
 12 13  1  0  0  0  0
 13 14  2  0  0  0  0
 14 15  1  0  0  0  0
 15 16  2  0  0  0  0
 16 17  1  0  0  0  0
 17 18  2  0  0  0  0
 18 19  1  0  0  0  0
 19 20  2  0  0  0  0
 20 21  1  0  0  0  0
 21 22  1  0  0  0  0
  5 22  2  0  0  0  0
 22 23  1  0  0  0  0
  8 23  1  0  0  0  0
 12 23  2  0  0  0  0
 21 24  2  0  0  0  0
 13 24  1  0  0  0  0
 17 24  1  0  0  0  0
 15 25  1  0  0  0  0
 25 26  2  0  0  0  0
 26 27  1  0  0  0  0
 27 28  2  0  0  0  0
 14 28  1  0  0  0  0
  1 29  1  0  0  0  0
  2 30  1  0  0  0  0
  3 31  1  0  0  0  0
  4 32  1  0  0  0  0
  7 33  1  0  0  0  0
  9 34  1  0  0  0  0
 10 35  1  0  0  0  0
 11 36  1  0  0  0  0
 16 37  1  0  0  0  0
 18 38  1  0  0  0  0
 19 39  1  0  0  0  0
 20 40  1  0  0  0  0
 25 41  1  0  0  0  0
 26 42  1  0  0  0  0
 27 43  1  0  0  0  0
 28 44  1  0  0  0  0
M  END
$$$$
