C32H16
APtclcactv01171906253D 0   0.00000     0.00000
 
 48 56  0  0  0  0  0  0  0  0999 V2000
   -3.7032    0.7070   -0.0002 C   0  0  0  0  0  0  0  0  0  0  0  0
   -3.7031   -0.7043   -0.0006 C   0  0  0  0  0  0  0  0  0  0  0  0
   -2.4338   -1.4434   -0.0012 C   0  0  0  0  0  0  0  0  0  0  0  0
   -2.4080   -2.8471   -0.0012 C   0  0  0  0  0  0  0  0  0  0  0  0
   -1.2314   -3.5293   -0.0012 C   0  0  0  0  0  0  0  0  0  0  0  0
   -0.0013   -2.8448   -0.0007 C   0  0  0  0  0  0  0  0  0  0  0  0
    1.2283   -3.5303   -0.0006 C   0  0  0  0  0  0  0  0  0  0  0  0
    2.4058   -2.8493   -0.0002 C   0  0  0  0  0  0  0  0  0  0  0  0
    2.4336   -1.4456    0.0003 C   0  0  0  0  0  0  0  0  0  0  0  0
    3.7032   -0.7070    0.0008 C   0  0  0  0  0  0  0  0  0  0  0  0
    3.7031    0.7043    0.0009 C   0  0  0  0  0  0  0  0  0  0  0  0
    2.4339    1.4435    0.0005 C   0  0  0  0  0  0  0  0  0  0  0  0
    2.4081    2.8472    0.0001 C   0  0  0  0  0  0  0  0  0  0  0  0
    1.2314    3.5294   -0.0008 C   0  0  0  0  0  0  0  0  0  0  0  0
    0.0013    2.8449   -0.0014 C   0  0  0  0  0  0  0  0  0  0  0  0
   -1.2284    3.5303   -0.0029 C   0  0  0  0  0  0  0  0  0  0  0  0
   -2.4058    2.8494   -0.0038 C   0  0  0  0  0  0  0  0  0  0  0  0
   -2.4336    1.4457   -0.0002 C   0  0  0  0  0  0  0  0  0  0  0  0
   -1.2238    0.7311    0.0044 C   0  0  0  0  0  0  0  0  0  0  0  0
    0.0004    1.4323   -0.0010 C   0  0  0  0  0  0  0  0  0  0  0  0
    1.2239    0.7297   -0.0001 C   0  0  0  0  0  0  0  0  0  0  0  0
    1.2238   -0.7310   -0.0002 C   0  0  0  0  0  0  0  0  0  0  0  0
   -0.0004   -1.4322   -0.0007 C   0  0  0  0  0  0  0  0  0  0  0  0
   -1.2239   -0.7296   -0.0011 C   0  0  0  0  0  0  0  0  0  0  0  0
    4.9216    1.3913    0.0009 C   0  0  0  0  0  0  0  0  0  0  0  0
    6.0957    0.6949    0.0008 C   0  0  0  0  0  0  0  0  0  0  0  0
    6.0960   -0.6943    0.0007 C   0  0  0  0  0  0  0  0  0  0  0  0
    4.9226   -1.3922    0.0007 C   0  0  0  0  0  0  0  0  0  0  0  0
   -4.9214   -1.3915   -0.0001 C   0  0  0  0  0  0  0  0  0  0  0  0
   -6.0956   -0.6952    0.0009 C   0  0  0  0  0  0  0  0  0  0  0  0
   -6.0960    0.6939    0.0009 C   0  0  0  0  0  0  0  0  0  0  0  0
   -4.9227    1.3921    0.0062 C   0  0  0  0  0  0  0  0  0  0  0  0
   -3.3389   -3.3949   -0.0009 H   0  0  0  0  0  0  0  0  0  0  0  0
   -1.2409   -4.6093   -0.0013 H   0  0  0  0  0  0  0  0  0  0  0  0
    1.2368   -4.6102   -0.0006 H   0  0  0  0  0  0  0  0  0  0  0  0
    3.3359   -3.3983    0.0002 H   0  0  0  0  0  0  0  0  0  0  0  0
    3.3388    3.3950    0.0010 H   0  0  0  0  0  0  0  0  0  0  0  0
    1.2409    4.6094   -0.0006 H   0  0  0  0  0  0  0  0  0  0  0  0
   -1.2369    4.6103   -0.0029 H   0  0  0  0  0  0  0  0  0  0  0  0
   -3.3359    3.3983   -0.0046 H   0  0  0  0  0  0  0  0  0  0  0  0
    4.9335    2.4713    0.0006 H   0  0  0  0  0  0  0  0  0  0  0  0
    7.0341    1.2294    0.0004 H   0  0  0  0  0  0  0  0  0  0  0  0
    7.0348   -1.2281    0.0002 H   0  0  0  0  0  0  0  0  0  0  0  0
    4.9359   -2.4721    0.0009 H   0  0  0  0  0  0  0  0  0  0  0  0
   -4.9331   -2.4714   -0.0008 H   0  0  0  0  0  0  0  0  0  0  0  0
   -7.0340   -1.2299    0.0014 H   0  0  0  0  0  0  0  0  0  0  0  0
   -7.0349    1.2277    0.0013 H   0  0  0  0  0  0  0  0  0  0  0  0
   -4.9362    2.4720    0.0065 H   0  0  0  0  0  0  0  0  0  0  0  0
  1  2  2  0  0  0  0
  2  3  1  0  0  0  0
  3  4  2  0  0  0  0
  4  5  1  0  0  0  0
  5  6  2  0  0  0  0
  6  7  1  0  0  0  0
  7  8  2  0  0  0  0
  8  9  1  0  0  0  0
  9 10  1  0  0  0  0
 10 11  2  0  0  0  0
 11 12  1  0  0  0  0
 12 13  2  0  0  0  0
 13 14  1  0  0  0  0
 14 15  2  0  0  0  0
 15 16  1  0  0  0  0
 16 17  2  0  0  0  0
 17 18  1  0  0  0  0
  1 18  1  0  0  0  0
 18 19  2  0  0  0  0
 19 20  1  0  0  0  0
 15 20  1  0  0  0  0
 20 21  2  0  0  0  0
 12 21  1  0  0  0  0
 21 22  1  0  0  0  0
  9 22  2  0  0  0  0
 22 23  1  0  0  0  0
  6 23  1  0  0  0  0
 23 24  2  0  0  0  0
  3 24  1  0  0  0  0
 19 24  1  0  0  0  0
 11 25  1  0  0  0  0
 25 26  2  0  0  0  0
 26 27  1  0  0  0  0
 27 28  2  0  0  0  0
 10 28  1  0  0  0  0
  2 29  1  0  0  0  0
 29 30  2  0  0  0  0
 30 31  1  0  0  0  0
 31 32  2  0  0  0  0
  1 32  1  0  0  0  0
  4 33  1  0  0  0  0
  5 34  1  0  0  0  0
  7 35  1  0  0  0  0
  8 36  1  0  0  0  0
 13 37  1  0  0  0  0
 14 38  1  0  0  0  0
 16 39  1  0  0  0  0
 17 40  1  0  0  0  0
 25 41  1  0  0  0  0
 26 42  1  0  0  0  0
 27 43  1  0  0  0  0
 28 44  1  0  0  0  0
 29 45  1  0  0  0  0
 30 46  1  0  0  0  0
 31 47  1  0  0  0  0
 32 48  1  0  0  0  0
M  END
$$$$
