C32H16
APtclcactv01171906263D 0   0.00000     0.00000
 
 48 56  0  0  0  0  0  0  0  0999 V2000
    0.7135    4.0457   -0.0015 C   0  0  0  0  0  0  0  0  0  0  0  0
    0.1787    2.7465   -0.0008 C   0  0  0  0  0  0  0  0  0  0  0  0
   -1.2111    2.5322    0.0006 C   0  0  0  0  0  0  0  0  0  0  0  0
   -1.7229    1.2472    0.0008 C   0  0  0  0  0  0  0  0  0  0  0  0
   -3.1819    1.0263    0.0011 C   0  0  0  0  0  0  0  0  0  0  0  0
   -3.6952   -0.2829    0.0002 C   0  0  0  0  0  0  0  0  0  0  0  0
   -2.7786   -1.4374   -0.0002 C   0  0  0  0  0  0  0  0  0  0  0  0
   -3.2762   -2.7361   -0.0016 C   0  0  0  0  0  0  0  0  0  0  0  0
   -2.4104   -3.8159   -0.0023 C   0  0  0  0  0  0  0  0  0  0  0  0
   -1.0444   -3.6288   -0.0012 C   0  0  0  0  0  0  0  0  0  0  0  0
   -0.5116   -2.3376    0.0003 C   0  0  0  0  0  0  0  0  0  0  0  0
    0.9417   -2.1269    0.0010 C   0  0  0  0  0  0  0  0  0  0  0  0
    1.8302   -3.2175    0.0006 C   0  0  0  0  0  0  0  0  0  0  0  0
    3.1734   -3.0252    0.0006 C   0  0  0  0  0  0  0  0  0  0  0  0
    3.7147   -1.7219    0.0012 C   0  0  0  0  0  0  0  0  0  0  0  0
    2.8449   -0.6077    0.0019 C   0  0  0  0  0  0  0  0  0  0  0  0
    3.3738    0.7009    0.0016 C   0  0  0  0  0  0  0  0  0  0  0  0
    2.4579    1.8557    0.0020 C   0  0  0  0  0  0  0  0  0  0  0  0
    1.0620    1.6398   -0.0020 C   0  0  0  0  0  0  0  0  0  0  0  0
    0.5415    0.3290   -0.0064 C   0  0  0  0  0  0  0  0  0  0  0  0
   -0.8487    0.1303   -0.0004 C   0  0  0  0  0  0  0  0  0  0  0  0
   -1.3841   -1.2274    0.0005 C   0  0  0  0  0  0  0  0  0  0  0  0
    1.4485   -0.8174    0.0018 C   0  0  0  0  0  0  0  0  0  0  0  0
    2.9429    3.1566    0.0015 C   0  0  0  0  0  0  0  0  0  0  0  0
    2.0658    4.2318   -0.0033 C   0  0  0  0  0  0  0  0  0  0  0  0
    4.7515    0.8764    0.0005 C   0  0  0  0  0  0  0  0  0  0  0  0
    5.5975   -0.2225   -0.0007 C   0  0  0  0  0  0  0  0  0  0  0  0
    5.1002   -1.5058    0.0006 C   0  0  0  0  0  0  0  0  0  0  0  0
   -5.0768   -0.4818    0.0001 C   0  0  0  0  0  0  0  0  0  0  0  0
   -5.9268    0.6021    0.0008 C   0  0  0  0  0  0  0  0  0  0  0  0
   -5.4203    1.8934    0.0017 C   0  0  0  0  0  0  0  0  0  0  0  0
   -4.0598    2.1108    0.0019 C   0  0  0  0  0  0  0  0  0  0  0  0
    0.0526    4.8999   -0.0050 H   0  0  0  0  0  0  0  0  0  0  0  0
   -1.8838    3.3771    0.0019 H   0  0  0  0  0  0  0  0  0  0  0  0
   -4.3432   -2.9028   -0.0019 H   0  0  0  0  0  0  0  0  0  0  0  0
   -2.8104   -4.8191   -0.0035 H   0  0  0  0  0  0  0  0  0  0  0  0
   -0.3842   -4.4835   -0.0010 H   0  0  0  0  0  0  0  0  0  0  0  0
    1.4372   -4.2235    0.0005 H   0  0  0  0  0  0  0  0  0  0  0  0
    3.8353   -3.8786    0.0006 H   0  0  0  0  0  0  0  0  0  0  0  0
    4.0085    3.3326    0.0012 H   0  0  0  0  0  0  0  0  0  0  0  0
    2.4613    5.2368   -0.0034 H   0  0  0  0  0  0  0  0  0  0  0  0
    5.1660    1.8737    0.0002 H   0  0  0  0  0  0  0  0  0  0  0  0
    6.6665   -0.0684   -0.0023 H   0  0  0  0  0  0  0  0  0  0  0  0
    5.7775   -2.3470   -0.0004 H   0  0  0  0  0  0  0  0  0  0  0  0
   -5.4788   -1.4842   -0.0010 H   0  0  0  0  0  0  0  0  0  0  0  0
   -6.9954    0.4454    0.0004 H   0  0  0  0  0  0  0  0  0  0  0  0
   -6.0975    2.7347    0.0023 H   0  0  0  0  0  0  0  0  0  0  0  0
   -3.6733    3.1193    0.0026 H   0  0  0  0  0  0  0  0  0  0  0  0
  1  2  2  0  0  0  0
  2  3  1  0  0  0  0
  3  4  2  0  0  0  0
  4  5  1  0  0  0  0
  5  6  2  0  0  0  0
  6  7  1  0  0  0  0
  7  8  1  0  0  0  0
  8  9  2  0  0  0  0
  9 10  1  0  0  0  0
 10 11  2  0  0  0  0
 11 12  1  0  0  0  0
 12 13  1  0  0  0  0
 13 14  2  0  0  0  0
 14 15  1  0  0  0  0
 15 16  1  0  0  0  0
 16 17  2  0  0  0  0
 17 18  1  0  0  0  0
 18 19  2  0  0  0  0
  2 19  1  0  0  0  0
 19 20  1  0  0  0  0
 20 21  2  0  0  0  0
  4 21  1  0  0  0  0
 21 22  1  0  0  0  0
 11 22  1  0  0  0  0
  7 22  2  0  0  0  0
 20 23  1  0  0  0  0
 16 23  1  0  0  0  0
 12 23  2  0  0  0  0
 18 24  1  0  0  0  0
 24 25  2  0  0  0  0
  1 25  1  0  0  0  0
 17 26  1  0  0  0  0
 26 27  2  0  0  0  0
 27 28  1  0  0  0  0
 15 28  2  0  0  0  0
  6 29  1  0  0  0  0
 29 30  2  0  0  0  0
 30 31  1  0  0  0  0
 31 32  2  0  0  0  0
  5 32  1  0  0  0  0
  1 33  1  0  0  0  0
  3 34  1  0  0  0  0
  8 35  1  0  0  0  0
  9 36  1  0  0  0  0
 10 37  1  0  0  0  0
 13 38  1  0  0  0  0
 14 39  1  0  0  0  0
 24 40  1  0  0  0  0
 25 41  1  0  0  0  0
 26 42  1  0  0  0  0
 27 43  1  0  0  0  0
 28 44  1  0  0  0  0
 29 45  1  0  0  0  0
 30 46  1  0  0  0  0
 31 47  1  0  0  0  0
 32 48  1  0  0  0  0
M  END
$$$$
