C26H16
APtclcactv01171906253D 0   0.00000     0.00000
 
 42 47  0  0  0  0  0  0  0  0999 V2000
    2.6389   -1.7849    0.4831 C   0  0  0  0  0  0  0  0  0  0  0  0
    3.5306   -2.8162    0.4349 C   0  0  0  0  0  0  0  0  0  0  0  0
    4.8543   -2.6000    0.0675 C   0  0  0  0  0  0  0  0  0  0  0  0
    5.3005   -1.3433   -0.2085 C   0  0  0  0  0  0  0  0  0  0  0  0
    4.4189   -0.2563   -0.1115 C   0  0  0  0  0  0  0  0  0  0  0  0
    3.0434   -0.4899    0.1431 C   0  0  0  0  0  0  0  0  0  0  0  0
    2.1168    0.6297    0.0420 C   0  0  0  0  0  0  0  0  0  0  0  0
    0.6649    0.4740   -0.0280 C   0  0  0  0  0  0  0  0  0  0  0  0
    0.0524   -0.7602   -0.2013 C   0  0  0  0  0  0  0  0  0  0  0  0
   -1.3377   -0.8730   -0.1683 C   0  0  0  0  0  0  0  0  0  0  0  0
   -1.9730   -2.1824   -0.2955 C   0  0  0  0  0  0  0  0  0  0  0  0
   -3.3151   -2.3068   -0.2556 C   0  0  0  0  0  0  0  0  0  0  0  0
   -4.1728   -1.1382   -0.0968 C   0  0  0  0  0  0  0  0  0  0  0  0
   -3.6005    0.1488    0.0108 C   0  0  0  0  0  0  0  0  0  0  0  0
   -2.1390    0.2876   -0.0225 C   0  0  0  0  0  0  0  0  0  0  0  0
   -1.5376    1.5335    0.0742 C   0  0  0  0  0  0  0  0  0  0  0  0
   -0.1454    1.6419    0.0506 C   0  0  0  0  0  0  0  0  0  0  0  0
    0.4598    2.9195    0.0708 C   0  0  0  0  0  0  0  0  0  0  0  0
    1.7991    3.0566    0.0214 C   0  0  0  0  0  0  0  0  0  0  0  0
    2.6537    1.9322   -0.0153 C   0  0  0  0  0  0  0  0  0  0  0  0
    4.0464    2.1159   -0.1502 C   0  0  0  0  0  0  0  0  0  0  0  0
    4.8934    1.0673   -0.2187 C   0  0  0  0  0  0  0  0  0  0  0  0
   -4.4314    1.2617    0.1464 C   0  0  0  0  0  0  0  0  0  0  0  0
   -5.7877    1.0978    0.1817 C   0  0  0  0  0  0  0  0  0  0  0  0
   -6.3529   -0.1668    0.0876 C   0  0  0  0  0  0  0  0  0  0  0  0
   -5.5673   -1.2744   -0.0501 C   0  0  0  0  0  0  0  0  0  0  0  0
    1.6405   -1.9747    0.8486 H   0  0  0  0  0  0  0  0  0  0  0  0
    3.2027   -3.8142    0.6876 H   0  0  0  0  0  0  0  0  0  0  0  0
    5.5333   -3.4362   -0.0042 H   0  0  0  0  0  0  0  0  0  0  0  0
    6.3270   -1.1841   -0.5050 H   0  0  0  0  0  0  0  0  0  0  0  0
    0.6367   -1.6416   -0.4222 H   0  0  0  0  0  0  0  0  0  0  0  0
   -1.3601   -3.0622   -0.4252 H   0  0  0  0  0  0  0  0  0  0  0  0
   -3.7609   -3.2871   -0.3414 H   0  0  0  0  0  0  0  0  0  0  0  0
   -2.1410    2.4246    0.1662 H   0  0  0  0  0  0  0  0  0  0  0  0
   -0.1638    3.7995    0.1268 H   0  0  0  0  0  0  0  0  0  0  0  0
    2.2283    4.0480    0.0111 H   0  0  0  0  0  0  0  0  0  0  0  0
    4.4424    3.1200   -0.1980 H   0  0  0  0  0  0  0  0  0  0  0  0
    5.9499    1.2441   -0.3542 H   0  0  0  0  0  0  0  0  0  0  0  0
   -4.0082    2.2528    0.2196 H   0  0  0  0  0  0  0  0  0  0  0  0
   -6.4266    1.9633    0.2824 H   0  0  0  0  0  0  0  0  0  0  0  0
   -7.4267   -0.2751    0.1215 H   0  0  0  0  0  0  0  0  0  0  0  0
   -6.0184   -2.2533   -0.1175 H   0  0  0  0  0  0  0  0  0  0  0  0
  1  2  2  0  0  0  0
  2  3  1  0  0  0  0
  3  4  2  0  0  0  0
  4  5  1  0  0  0  0
  5  6  1  0  0  0  0
  1  6  1  0  0  0  0
  6  7  2  0  0  0  0
  7  8  1  0  0  0  0
  8  9  2  0  0  0  0
  9 10  1  0  0  0  0
 10 11  2  0  0  0  0
 11 12  1  0  0  0  0
 12 13  2  0  0  0  0
 13 14  1  0  0  0  0
 14 15  2  0  0  0  0
 10 15  1  0  0  0  0
 15 16  1  0  0  0  0
 16 17  2  0  0  0  0
  8 17  1  0  0  0  0
 17 18  1  0  0  0  0
 18 19  2  0  0  0  0
 19 20  1  0  0  0  0
  7 20  1  0  0  0  0
 20 21  2  0  0  0  0
 21 22  1  0  0  0  0
  5 22  2  0  0  0  0
 14 23  1  0  0  0  0
 23 24  2  0  0  0  0
 24 25  1  0  0  0  0
 25 26  2  0  0  0  0
 13 26  1  0  0  0  0
  1 27  1  0  0  0  0
  2 28  1  0  0  0  0
  3 29  1  0  0  0  0
  4 30  1  0  0  0  0
  9 31  1  0  0  0  0
 11 32  1  0  0  0  0
 12 33  1  0  0  0  0
 16 34  1  0  0  0  0
 18 35  1  0  0  0  0
 19 36  1  0  0  0  0
 21 37  1  0  0  0  0
 22 38  1  0  0  0  0
 23 39  1  0  0  0  0
 24 40  1  0  0  0  0
 25 41  1  0  0  0  0
 26 42  1  0  0  0  0
M  END
$$$$
