C24H14
APtclcactv01171906253D 0   0.00000     0.00000
 
 38 43  0  0  0  0  0  0  0  0999 V2000
   -1.3933    3.0181    0.0016 C   0  0  0  0  0  0  0  0  0  0  0  0
   -0.7099    1.8036    0.0007 C   0  0  0  0  0  0  0  0  0  0  0  0
   -1.1548    0.4025    0.0007 C   0  0  0  0  0  0  0  0  0  0  0  0
   -2.3881   -0.2735    0.0006 C   0  0  0  0  0  0  0  0  0  0  0  0
   -2.4130   -1.7419    0.0002 C   0  0  0  0  0  0  0  0  0  0  0  0
   -1.2347   -2.4958   -0.0012 C   0  0  0  0  0  0  0  0  0  0  0  0
   -0.0000   -1.8325   -0.0010 C   0  0  0  0  0  0  0  0  0  0  0  0
    1.2346   -2.4958   -0.0021 C   0  0  0  0  0  0  0  0  0  0  0  0
    2.4130   -1.7419   -0.0009 C   0  0  0  0  0  0  0  0  0  0  0  0
    2.3881   -0.2735    0.0011 C   0  0  0  0  0  0  0  0  0  0  0  0
    1.1548    0.4025    0.0005 C   0  0  0  0  0  0  0  0  0  0  0  0
    0.7099    1.8036   -0.0003 C   0  0  0  0  0  0  0  0  0  0  0  0
    1.3933    3.0181   -0.0023 C   0  0  0  0  0  0  0  0  0  0  0  0
    0.6934    4.2057   -0.0029 C   0  0  0  0  0  0  0  0  0  0  0  0
   -0.6934    4.2058    0.0003 C   0  0  0  0  0  0  0  0  0  0  0  0
    0.0000   -0.3805    0.0003 C   0  0  0  0  0  0  0  0  0  0  0  0
    3.6057    0.4277    0.0031 C   0  0  0  0  0  0  0  0  0  0  0  0
    4.7790   -0.2594    0.0024 C   0  0  0  0  0  0  0  0  0  0  0  0
    4.8080   -1.6535   -0.0003 C   0  0  0  0  0  0  0  0  0  0  0  0
    3.6688   -2.3911   -0.0012 C   0  0  0  0  0  0  0  0  0  0  0  0
   -3.6688   -2.3910    0.0008 C   0  0  0  0  0  0  0  0  0  0  0  0
   -4.8080   -1.6535    0.0006 C   0  0  0  0  0  0  0  0  0  0  0  0
   -4.7790   -0.2594   -0.0003 C   0  0  0  0  0  0  0  0  0  0  0  0
   -3.6057    0.4277    0.0004 C   0  0  0  0  0  0  0  0  0  0  0  0
   -2.4732    3.0289   -0.0013 H   0  0  0  0  0  0  0  0  0  0  0  0
   -1.2758   -3.5751   -0.0020 H   0  0  0  0  0  0  0  0  0  0  0  0
    1.2758   -3.5750   -0.0034 H   0  0  0  0  0  0  0  0  0  0  0  0
    2.4733    3.0288   -0.0030 H   0  0  0  0  0  0  0  0  0  0  0  0
    1.2293    5.1434   -0.0040 H   0  0  0  0  0  0  0  0  0  0  0  0
   -1.2292    5.1435   -0.0004 H   0  0  0  0  0  0  0  0  0  0  0  0
    3.6096    1.5077    0.0049 H   0  0  0  0  0  0  0  0  0  0  0  0
    5.7103    0.2874    0.0035 H   0  0  0  0  0  0  0  0  0  0  0  0
    5.7621   -2.1596   -0.0015 H   0  0  0  0  0  0  0  0  0  0  0  0
    3.7214   -3.4698   -0.0026 H   0  0  0  0  0  0  0  0  0  0  0  0
   -3.7214   -3.4697    0.0011 H   0  0  0  0  0  0  0  0  0  0  0  0
   -5.7621   -2.1596    0.0007 H   0  0  0  0  0  0  0  0  0  0  0  0
   -5.7104    0.2874   -0.0016 H   0  0  0  0  0  0  0  0  0  0  0  0
   -3.6097    1.5077    0.0005 H   0  0  0  0  0  0  0  0  0  0  0  0
  1  2  2  0  0  0  0
  2  3  1  0  0  0  0
  3  4  1  0  0  0  0
  4  5  2  0  0  0  0
  5  6  1  0  0  0  0
  6  7  2  0  0  0  0
  7  8  1  0  0  0  0
  8  9  2  0  0  0  0
  9 10  1  0  0  0  0
 10 11  2  0  0  0  0
 11 12  1  0  0  0  0
  2 12  1  0  0  0  0
 12 13  2  0  0  0  0
 13 14  1  0  0  0  0
 14 15  2  0  0  0  0
  1 15  1  0  0  0  0
 11 16  1  0  0  0  0
  7 16  1  0  0  0  0
  3 16  2  0  0  0  0
 10 17  1  0  0  0  0
 17 18  2  0  0  0  0
 18 19  1  0  0  0  0
 19 20  2  0  0  0  0
  9 20  1  0  0  0  0
  5 21  1  0  0  0  0
 21 22  2  0  0  0  0
 22 23  1  0  0  0  0
 23 24  2  0  0  0  0
  4 24  1  0  0  0  0
  1 25  1  0  0  0  0
  6 26  1  0  0  0  0
  8 27  1  0  0  0  0
 13 28  1  0  0  0  0
 14 29  1  0  0  0  0
 15 30  1  0  0  0  0
 17 31  1  0  0  0  0
 18 32  1  0  0  0  0
 19 33  1  0  0  0  0
 20 34  1  0  0  0  0
 21 35  1  0  0  0  0
 22 36  1  0  0  0  0
 23 37  1  0  0  0  0
 24 38  1  0  0  0  0
M  END
$$$$
