C32H16
APtclcactv01171906253D 0   0.00000     0.00000
 
 48 56  0  0  0  0  0  0  0  0999 V2000
   -3.5694   -0.5407   -0.0000 C   0  0  0  0  0  0  0  0  0  0  0  0
   -2.8743   -1.7679   -0.0007 C   0  0  0  0  0  0  0  0  0  0  0  0
   -1.4037   -1.7834   -0.0017 C   0  0  0  0  0  0  0  0  0  0  0  0
   -0.6836   -2.9827   -0.0021 C   0  0  0  0  0  0  0  0  0  0  0  0
    0.6824   -2.9830   -0.0021 C   0  0  0  0  0  0  0  0  0  0  0  0
    1.4029   -1.7839   -0.0018 C   0  0  0  0  0  0  0  0  0  0  0  0
    2.8735   -1.7689   -0.0008 C   0  0  0  0  0  0  0  0  0  0  0  0
    3.5688   -0.5417    0.0000 C   0  0  0  0  0  0  0  0  0  0  0  0
    2.8293    0.7293   -0.0001 C   0  0  0  0  0  0  0  0  0  0  0  0
    3.4994    1.9600    0.0016 C   0  0  0  0  0  0  0  0  0  0  0  0
    2.8108    3.1352    0.0020 C   0  0  0  0  0  0  0  0  0  0  0  0
    1.4061    3.1481    0.0011 C   0  0  0  0  0  0  0  0  0  0  0  0
    0.6783    4.3584    0.0015 C   0  0  0  0  0  0  0  0  0  0  0  0
   -0.6764    4.3587    0.0001 C   0  0  0  0  0  0  0  0  0  0  0  0
   -1.4048    3.1488   -0.0014 C   0  0  0  0  0  0  0  0  0  0  0  0
   -2.8095    3.1364   -0.0030 C   0  0  0  0  0  0  0  0  0  0  0  0
   -3.4987    1.9615   -0.0047 C   0  0  0  0  0  0  0  0  0  0  0  0
   -2.8295    0.7303   -0.0009 C   0  0  0  0  0  0  0  0  0  0  0  0
   -1.4243    0.7083    0.0045 C   0  0  0  0  0  0  0  0  0  0  0  0
   -0.7055    1.9216   -0.0017 C   0  0  0  0  0  0  0  0  0  0  0  0
    0.7059    1.9213   -0.0007 C   0  0  0  0  0  0  0  0  0  0  0  0
    1.4241    0.7078   -0.0015 C   0  0  0  0  0  0  0  0  0  0  0  0
    0.7046   -0.5632   -0.0019 C   0  0  0  0  0  0  0  0  0  0  0  0
   -0.7051   -0.5628   -0.0019 C   0  0  0  0  0  0  0  0  0  0  0  0
    4.9668   -0.5415    0.0014 C   0  0  0  0  0  0  0  0  0  0  0  0
    5.6538   -1.7330    0.0020 C   0  0  0  0  0  0  0  0  0  0  0  0
    4.9693   -2.9415    0.0007 C   0  0  0  0  0  0  0  0  0  0  0  0
    3.5939   -2.9666   -0.0002 C   0  0  0  0  0  0  0  0  0  0  0  0
   -3.5943   -2.9658    0.0002 C   0  0  0  0  0  0  0  0  0  0  0  0
   -4.9696   -2.9411    0.0016 C   0  0  0  0  0  0  0  0  0  0  0  0
   -5.6540   -1.7328    0.0022 C   0  0  0  0  0  0  0  0  0  0  0  0
   -4.9674   -0.5412    0.0072 C   0  0  0  0  0  0  0  0  0  0  0  0
   -1.2157   -3.9225   -0.0020 H   0  0  0  0  0  0  0  0  0  0  0  0
    1.2141   -3.9231   -0.0021 H   0  0  0  0  0  0  0  0  0  0  0  0
    4.5793    1.9770    0.0029 H   0  0  0  0  0  0  0  0  0  0  0  0
    3.3520    4.0698    0.0033 H   0  0  0  0  0  0  0  0  0  0  0  0
    1.2101    5.2984    0.0034 H   0  0  0  0  0  0  0  0  0  0  0  0
   -1.2077    5.2990    0.0004 H   0  0  0  0  0  0  0  0  0  0  0  0
   -3.3504    4.0711   -0.0026 H   0  0  0  0  0  0  0  0  0  0  0  0
   -4.5786    1.9791   -0.0056 H   0  0  0  0  0  0  0  0  0  0  0  0
    5.5070    0.3936    0.0016 H   0  0  0  0  0  0  0  0  0  0  0  0
    6.7338   -1.7289    0.0031 H   0  0  0  0  0  0  0  0  0  0  0  0
    5.5216   -3.8695    0.0009 H   0  0  0  0  0  0  0  0  0  0  0  0
    3.0709   -3.9115   -0.0011 H   0  0  0  0  0  0  0  0  0  0  0  0
   -3.0710   -3.9106   -0.0006 H   0  0  0  0  0  0  0  0  0  0  0  0
   -5.5218   -3.8693    0.0020 H   0  0  0  0  0  0  0  0  0  0  0  0
   -6.7340   -1.7289    0.0033 H   0  0  0  0  0  0  0  0  0  0  0  0
   -5.5080    0.3938    0.0076 H   0  0  0  0  0  0  0  0  0  0  0  0
  1  2  2  0  0  0  0
  2  3  1  0  0  0  0
  3  4  2  0  0  0  0
  4  5  1  0  0  0  0
  5  6  2  0  0  0  0
  6  7  1  0  0  0  0
  7  8  2  0  0  0  0
  8  9  1  0  0  0  0
  9 10  2  0  0  0  0
 10 11  1  0  0  0  0
 11 12  2  0  0  0  0
 12 13  1  0  0  0  0
 13 14  2  0  0  0  0
 14 15  1  0  0  0  0
 15 16  2  0  0  0  0
 16 17  1  0  0  0  0
 17 18  2  0  0  0  0
  1 18  1  0  0  0  0
 18 19  1  0  0  0  0
 19 20  2  0  0  0  0
 15 20  1  0  0  0  0
 20 21  1  0  0  0  0
 12 21  1  0  0  0  0
 21 22  2  0  0  0  0
  9 22  1  0  0  0  0
 22 23  1  0  0  0  0
  6 23  1  0  0  0  0
 23 24  2  0  0  0  0
  3 24  1  0  0  0  0
 19 24  1  0  0  0  0
  8 25  1  0  0  0  0
 25 26  2  0  0  0  0
 26 27  1  0  0  0  0
 27 28  2  0  0  0  0
  7 28  1  0  0  0  0
  2 29  1  0  0  0  0
 29 30  2  0  0  0  0
 30 31  1  0  0  0  0
 31 32  2  0  0  0  0
  1 32  1  0  0  0  0
  4 33  1  0  0  0  0
  5 34  1  0  0  0  0
 10 35  1  0  0  0  0
 11 36  1  0  0  0  0
 13 37  1  0  0  0  0
 14 38  1  0  0  0  0
 16 39  1  0  0  0  0
 17 40  1  0  0  0  0
 25 41  1  0  0  0  0
 26 42  1  0  0  0  0
 27 43  1  0  0  0  0
 28 44  1  0  0  0  0
 29 45  1  0  0  0  0
 30 46  1  0  0  0  0
 31 47  1  0  0  0  0
 32 48  1  0  0  0  0
M  END
$$$$
