C24H14
APtclcactv01171906253D 0   0.00000     0.00000
 
 38 43  0  0  0  0  0  0  0  0999 V2000
   -2.0767   -3.4080   -0.0005 C   0  0  0  0  0  0  0  0  0  0  0  0
   -3.3040   -2.7856    0.0006 C   0  0  0  0  0  0  0  0  0  0  0  0
   -3.4064   -1.4034    0.0010 C   0  0  0  0  0  0  0  0  0  0  0  0
   -2.2628   -0.6132   -0.0001 C   0  0  0  0  0  0  0  0  0  0  0  0
   -2.3690    0.8573    0.0003 C   0  0  0  0  0  0  0  0  0  0  0  0
   -1.2059    1.6494    0.0000 C   0  0  0  0  0  0  0  0  0  0  0  0
    0.1180    0.9978   -0.0004 C   0  0  0  0  0  0  0  0  0  0  0  0
    1.2761    1.7452   -0.0002 C   0  0  0  0  0  0  0  0  0  0  0  0
    2.5378    1.1239   -0.0002 C   0  0  0  0  0  0  0  0  0  0  0  0
    2.6485   -0.2878   -0.0002 C   0  0  0  0  0  0  0  0  0  0  0  0
    1.4367   -1.1073   -0.0001 C   0  0  0  0  0  0  0  0  0  0  0  0
    1.5012   -2.5131    0.0002 C   0  0  0  0  0  0  0  0  0  0  0  0
    0.3697   -3.2594    0.0004 C   0  0  0  0  0  0  0  0  0  0  0  0
   -0.9015   -2.6437   -0.0013 C   0  0  0  0  0  0  0  0  0  0  0  0
   -0.9961   -1.2327   -0.0012 C   0  0  0  0  0  0  0  0  0  0  0  0
    0.1869   -0.4625   -0.0007 C   0  0  0  0  0  0  0  0  0  0  0  0
    3.9165   -0.8808    0.0000 C   0  0  0  0  0  0  0  0  0  0  0  0
    5.0321   -0.0966    0.0005 C   0  0  0  0  0  0  0  0  0  0  0  0
    4.9280    1.2915    0.0006 C   0  0  0  0  0  0  0  0  0  0  0  0
    3.7111    1.9015    0.0003 C   0  0  0  0  0  0  0  0  0  0  0  0
   -1.3148    3.0391   -0.0003 C   0  0  0  0  0  0  0  0  0  0  0  0
   -2.5602    3.6294   -0.0004 C   0  0  0  0  0  0  0  0  0  0  0  0
   -3.7074    2.8502    0.0002 C   0  0  0  0  0  0  0  0  0  0  0  0
   -3.6202    1.4752    0.0006 C   0  0  0  0  0  0  0  0  0  0  0  0
   -2.0188   -4.4864    0.0038 H   0  0  0  0  0  0  0  0  0  0  0  0
   -4.2027   -3.3845    0.0009 H   0  0  0  0  0  0  0  0  0  0  0  0
   -4.3807   -0.9375    0.0018 H   0  0  0  0  0  0  0  0  0  0  0  0
    1.2137    2.8234   -0.0003 H   0  0  0  0  0  0  0  0  0  0  0  0
    2.4636   -3.0032   -0.0002 H   0  0  0  0  0  0  0  0  0  0  0  0
    0.4410   -4.3370    0.0003 H   0  0  0  0  0  0  0  0  0  0  0  0
    4.0111   -1.9566    0.0003 H   0  0  0  0  0  0  0  0  0  0  0  0
    6.0085   -0.5582    0.0010 H   0  0  0  0  0  0  0  0  0  0  0  0
    5.8251    1.8928    0.0014 H   0  0  0  0  0  0  0  0  0  0  0  0
    3.6460    2.9796    0.0000 H   0  0  0  0  0  0  0  0  0  0  0  0
   -0.4254    3.6518   -0.0001 H   0  0  0  0  0  0  0  0  0  0  0  0
   -2.6433    4.7062   -0.0007 H   0  0  0  0  0  0  0  0  0  0  0  0
   -4.6773    3.3252    0.0008 H   0  0  0  0  0  0  0  0  0  0  0  0
   -4.5190    0.8764    0.0007 H   0  0  0  0  0  0  0  0  0  0  0  0
  1  2  2  0  0  0  0
  2  3  1  0  0  0  0
  3  4  2  0  0  0  0
  4  5  1  0  0  0  0
  5  6  2  0  0  0  0
  6  7  1  0  0  0  0
  7  8  1  0  0  0  0
  8  9  2  0  0  0  0
  9 10  1  0  0  0  0
 10 11  2  0  0  0  0
 11 12  1  0  0  0  0
 12 13  2  0  0  0  0
 13 14  1  0  0  0  0
  1 14  1  0  0  0  0
 14 15  2  0  0  0  0
  4 15  1  0  0  0  0
 15 16  1  0  0  0  0
 11 16  1  0  0  0  0
  7 16  2  0  0  0  0
 10 17  1  0  0  0  0
 17 18  2  0  0  0  0
 18 19  1  0  0  0  0
 19 20  2  0  0  0  0
  9 20  1  0  0  0  0
  6 21  1  0  0  0  0
 21 22  2  0  0  0  0
 22 23  1  0  0  0  0
 23 24  2  0  0  0  0
  5 24  1  0  0  0  0
  1 25  1  0  0  0  0
  2 26  1  0  0  0  0
  3 27  1  0  0  0  0
  8 28  1  0  0  0  0
 12 29  1  0  0  0  0
 13 30  1  0  0  0  0
 17 31  1  0  0  0  0
 18 32  1  0  0  0  0
 19 33  1  0  0  0  0
 20 34  1  0  0  0  0
 21 35  1  0  0  0  0
 22 36  1  0  0  0  0
 23 37  1  0  0  0  0
 24 38  1  0  0  0  0
M  END
$$$$
