C30H18
APtclcactv01171906263D 0   0.00000     0.00000
 
 48 54  0  0  0  0  0  0  0  0999 V2000
   -6.1583    1.5437   -0.0013 C   0  0  0  0  0  0  0  0  0  0  0  0
   -6.8441    0.3642   -0.0030 C   0  0  0  0  0  0  0  0  0  0  0  0
   -6.1717   -0.8519   -0.0024 C   0  0  0  0  0  0  0  0  0  0  0  0
   -4.8062   -0.8949   -0.0005 C   0  0  0  0  0  0  0  0  0  0  0  0
   -4.0768    0.2951    0.0009 C   0  0  0  0  0  0  0  0  0  0  0  0
   -4.7565    1.5335    0.0007 C   0  0  0  0  0  0  0  0  0  0  0  0
   -4.0206    2.7421    0.0012 C   0  0  0  0  0  0  0  0  0  0  0  0
   -2.6731    2.7444    0.0013 C   0  0  0  0  0  0  0  0  0  0  0  0
   -1.9311    1.5386    0.0015 C   0  0  0  0  0  0  0  0  0  0  0  0
   -0.5338    1.5640    0.0012 C   0  0  0  0  0  0  0  0  0  0  0  0
    0.1805    0.3746    0.0010 C   0  0  0  0  0  0  0  0  0  0  0  0
    1.6575    0.4057    0.0006 C   0  0  0  0  0  0  0  0  0  0  0  0
    2.3193    1.6214    0.0004 C   0  0  0  0  0  0  0  0  0  0  0  0
    3.7201    1.6530    0.0001 C   0  0  0  0  0  0  0  0  0  0  0  0
    4.4158    2.8763   -0.0007 C   0  0  0  0  0  0  0  0  0  0  0  0
    5.7762    2.8787   -0.0014 C   0  0  0  0  0  0  0  0  0  0  0  0
    6.4965    1.6851   -0.0018 C   0  0  0  0  0  0  0  0  0  0  0  0
    5.8604    0.4825   -0.0011 C   0  0  0  0  0  0  0  0  0  0  0  0
    4.4539    0.4373    0.0001 C   0  0  0  0  0  0  0  0  0  0  0  0
    3.7731   -0.7874    0.0003 C   0  0  0  0  0  0  0  0  0  0  0  0
    2.3889   -0.8068    0.0001 C   0  0  0  0  0  0  0  0  0  0  0  0
    1.6721   -2.0970    0.0002 C   0  0  0  0  0  0  0  0  0  0  0  0
    0.2675   -2.1243   -0.0006 C   0  0  0  0  0  0  0  0  0  0  0  0
   -0.4988   -0.8635    0.0016 C   0  0  0  0  0  0  0  0  0  0  0  0
   -1.8879   -0.8951    0.0008 C   0  0  0  0  0  0  0  0  0  0  0  0
   -2.6093    0.2948    0.0025 C   0  0  0  0  0  0  0  0  0  0  0  0
   -0.3983   -3.3510   -0.0009 C   0  0  0  0  0  0  0  0  0  0  0  0
    0.3241   -4.5243   -0.0005 C   0  0  0  0  0  0  0  0  0  0  0  0
    1.7106   -4.4972    0.0008 C   0  0  0  0  0  0  0  0  0  0  0  0
    2.3858   -3.2961    0.0007 C   0  0  0  0  0  0  0  0  0  0  0  0
   -6.6934    2.4817   -0.0059 H   0  0  0  0  0  0  0  0  0  0  0  0
   -7.9240    0.3759   -0.0045 H   0  0  0  0  0  0  0  0  0  0  0  0
   -6.7349   -1.7734   -0.0031 H   0  0  0  0  0  0  0  0  0  0  0  0
   -4.2934   -1.8454    0.0004 H   0  0  0  0  0  0  0  0  0  0  0  0
   -4.5504    3.6832    0.0010 H   0  0  0  0  0  0  0  0  0  0  0  0
   -2.1470    3.6877    0.0009 H   0  0  0  0  0  0  0  0  0  0  0  0
   -0.0104    2.5088    0.0007 H   0  0  0  0  0  0  0  0  0  0  0  0
    1.7572    2.5435    0.0001 H   0  0  0  0  0  0  0  0  0  0  0  0
    3.8719    3.8093   -0.0012 H   0  0  0  0  0  0  0  0  0  0  0  0
    6.3063    3.8197   -0.0020 H   0  0  0  0  0  0  0  0  0  0  0  0
    7.5761    1.7155   -0.0030 H   0  0  0  0  0  0  0  0  0  0  0  0
    6.4325   -0.4335   -0.0017 H   0  0  0  0  0  0  0  0  0  0  0  0
    4.3272   -1.7145   -0.0004 H   0  0  0  0  0  0  0  0  0  0  0  0
   -2.4072   -1.8421   -0.0018 H   0  0  0  0  0  0  0  0  0  0  0  0
   -1.4779   -3.3805   -0.0011 H   0  0  0  0  0  0  0  0  0  0  0  0
   -0.1934   -5.4722   -0.0007 H   0  0  0  0  0  0  0  0  0  0  0  0
    2.2650   -5.4241    0.0018 H   0  0  0  0  0  0  0  0  0  0  0  0
    3.4657   -3.2827    0.0013 H   0  0  0  0  0  0  0  0  0  0  0  0
  1  2  2  0  0  0  0
  2  3  1  0  0  0  0
  3  4  2  0  0  0  0
  4  5  1  0  0  0  0
  5  6  2  0  0  0  0
  1  6  1  0  0  0  0
  6  7  1  0  0  0  0
  7  8  2  0  0  0  0
  8  9  1  0  0  0  0
  9 10  2  0  0  0  0
 10 11  1  0  0  0  0
 11 12  1  0  0  0  0
 12 13  2  0  0  0  0
 13 14  1  0  0  0  0
 14 15  2  0  0  0  0
 15 16  1  0  0  0  0
 16 17  2  0  0  0  0
 17 18  1  0  0  0  0
 18 19  2  0  0  0  0
 14 19  1  0  0  0  0
 19 20  1  0  0  0  0
 20 21  2  0  0  0  0
 12 21  1  0  0  0  0
 21 22  1  0  0  0  0
 22 23  2  0  0  0  0
 23 24  1  0  0  0  0
 11 24  2  0  0  0  0
 24 25  1  0  0  0  0
 25 26  2  0  0  0  0
  5 26  1  0  0  0  0
  9 26  1  0  0  0  0
 23 27  1  0  0  0  0
 27 28  2  0  0  0  0
 28 29  1  0  0  0  0
 29 30  2  0  0  0  0
 22 30  1  0  0  0  0
  1 31  1  0  0  0  0
  2 32  1  0  0  0  0
  3 33  1  0  0  0  0
  4 34  1  0  0  0  0
  7 35  1  0  0  0  0
  8 36  1  0  0  0  0
 10 37  1  0  0  0  0
 13 38  1  0  0  0  0
 15 39  1  0  0  0  0
 16 40  1  0  0  0  0
 17 41  1  0  0  0  0
 18 42  1  0  0  0  0
 20 43  1  0  0  0  0
 25 44  1  0  0  0  0
 27 45  1  0  0  0  0
 28 46  1  0  0  0  0
 29 47  1  0  0  0  0
 30 48  1  0  0  0  0
M  END
$$$$
