C24H14
APtclcactv01171906253D 0   0.00000     0.00000
 
 38 43  0  0  0  0  0  0  0  0999 V2000
   -3.6052   -1.9136    0.0004 C   0  0  0  0  0  0  0  0  0  0  0  0
   -4.9683   -1.8596    0.0016 C   0  0  0  0  0  0  0  0  0  0  0  0
   -5.6324   -0.6364    0.0017 C   0  0  0  0  0  0  0  0  0  0  0  0
   -4.9403    0.5357    0.0007 C   0  0  0  0  0  0  0  0  0  0  0  0
   -3.5320    0.5190    0.0000 C   0  0  0  0  0  0  0  0  0  0  0  0
   -2.8612   -0.7291   -0.0001 C   0  0  0  0  0  0  0  0  0  0  0  0
   -1.3982   -0.7618   -0.0007 C   0  0  0  0  0  0  0  0  0  0  0  0
   -0.6810   -1.9684   -0.0015 C   0  0  0  0  0  0  0  0  0  0  0  0
    0.6809   -1.9684   -0.0018 C   0  0  0  0  0  0  0  0  0  0  0  0
    1.3982   -0.7618   -0.0014 C   0  0  0  0  0  0  0  0  0  0  0  0
    2.8612   -0.7291   -0.0004 C   0  0  0  0  0  0  0  0  0  0  0  0
    3.5320    0.5190    0.0003 C   0  0  0  0  0  0  0  0  0  0  0  0
    2.8134    1.7273    0.0005 C   0  0  0  0  0  0  0  0  0  0  0  0
    1.4288    1.7320    0.0002 C   0  0  0  0  0  0  0  0  0  0  0  0
    0.6744    2.9861    0.0005 C   0  0  0  0  0  0  0  0  0  0  0  0
   -0.6744    2.9860   -0.0001 C   0  0  0  0  0  0  0  0  0  0  0  0
   -1.4288    1.7321   -0.0005 C   0  0  0  0  0  0  0  0  0  0  0  0
   -2.8133    1.7272   -0.0014 C   0  0  0  0  0  0  0  0  0  0  0  0
   -0.7023    0.4613   -0.0010 C   0  0  0  0  0  0  0  0  0  0  0  0
    0.7023    0.4613   -0.0013 C   0  0  0  0  0  0  0  0  0  0  0  0
    4.9403    0.5357    0.0012 C   0  0  0  0  0  0  0  0  0  0  0  0
    5.6325   -0.6364    0.0014 C   0  0  0  0  0  0  0  0  0  0  0  0
    4.9683   -1.8596    0.0006 C   0  0  0  0  0  0  0  0  0  0  0  0
    3.6053   -1.9137    0.0002 C   0  0  0  0  0  0  0  0  0  0  0  0
   -3.1016   -2.8690    0.0045 H   0  0  0  0  0  0  0  0  0  0  0  0
   -5.5387   -2.7766    0.0020 H   0  0  0  0  0  0  0  0  0  0  0  0
   -6.7122   -0.6170    0.0022 H   0  0  0  0  0  0  0  0  0  0  0  0
   -5.4702    1.4767    0.0001 H   0  0  0  0  0  0  0  0  0  0  0  0
   -1.2150   -2.9071   -0.0014 H   0  0  0  0  0  0  0  0  0  0  0  0
    1.2150   -2.9071   -0.0020 H   0  0  0  0  0  0  0  0  0  0  0  0
    3.3489    2.6652    0.0013 H   0  0  0  0  0  0  0  0  0  0  0  0
    1.2059    3.9262    0.0015 H   0  0  0  0  0  0  0  0  0  0  0  0
   -1.2059    3.9262    0.0002 H   0  0  0  0  0  0  0  0  0  0  0  0
   -3.3489    2.6651   -0.0027 H   0  0  0  0  0  0  0  0  0  0  0  0
    5.4702    1.4768    0.0015 H   0  0  0  0  0  0  0  0  0  0  0  0
    6.7123   -0.6170    0.0018 H   0  0  0  0  0  0  0  0  0  0  0  0
    5.5388   -2.7766    0.0004 H   0  0  0  0  0  0  0  0  0  0  0  0
    3.1017   -2.8691   -0.0004 H   0  0  0  0  0  0  0  0  0  0  0  0
  1  2  2  0  0  0  0
  2  3  1  0  0  0  0
  3  4  2  0  0  0  0
  4  5  1  0  0  0  0
  5  6  1  0  0  0  0
  1  6  1  0  0  0  0
  6  7  2  0  0  0  0
  7  8  1  0  0  0  0
  8  9  2  0  0  0  0
  9 10  1  0  0  0  0
 10 11  2  0  0  0  0
 11 12  1  0  0  0  0
 12 13  2  0  0  0  0
 13 14  1  0  0  0  0
 14 15  2  0  0  0  0
 15 16  1  0  0  0  0
 16 17  2  0  0  0  0
 17 18  1  0  0  0  0
  5 18  2  0  0  0  0
 17 19  1  0  0  0  0
  7 19  1  0  0  0  0
 19 20  2  0  0  0  0
 14 20  1  0  0  0  0
 10 20  1  0  0  0  0
 12 21  1  0  0  0  0
 21 22  2  0  0  0  0
 22 23  1  0  0  0  0
 23 24  2  0  0  0  0
 11 24  1  0  0  0  0
  1 25  1  0  0  0  0
  2 26  1  0  0  0  0
  3 27  1  0  0  0  0
  4 28  1  0  0  0  0
  8 29  1  0  0  0  0
  9 30  1  0  0  0  0
 13 31  1  0  0  0  0
 15 32  1  0  0  0  0
 16 33  1  0  0  0  0
 18 34  1  0  0  0  0
 21 35  1  0  0  0  0
 22 36  1  0  0  0  0
 23 37  1  0  0  0  0
 24 38  1  0  0  0  0
M  END
$$$$
