C30H18
APtclcactv01171906253D 0   0.00000     0.00000
 
 48 54  0  0  0  0  0  0  0  0999 V2000
   -5.6242   -0.5401    0.4518 C   0  0  0  0  0  0  0  0  0  0  0  0
   -4.9001   -1.6775    0.4880 C   0  0  0  0  0  0  0  0  0  0  0  0
   -3.5112   -1.6729    0.2375 C   0  0  0  0  0  0  0  0  0  0  0  0
   -2.7993   -2.8883    0.1720 C   0  0  0  0  0  0  0  0  0  0  0  0
   -1.4485   -2.8924    0.0652 C   0  0  0  0  0  0  0  0  0  0  0  0
   -0.7296   -1.6862    0.0327 C   0  0  0  0  0  0  0  0  0  0  0  0
    0.7331   -1.6888   -0.0213 C   0  0  0  0  0  0  0  0  0  0  0  0
    1.4500   -2.8965   -0.0865 C   0  0  0  0  0  0  0  0  0  0  0  0
    2.8007   -2.8921   -0.2003 C   0  0  0  0  0  0  0  0  0  0  0  0
    3.5162   -1.6791   -0.2219 C   0  0  0  0  0  0  0  0  0  0  0  0
    4.9030   -1.6747   -0.4877 C   0  0  0  0  0  0  0  0  0  0  0  0
    5.6208   -0.5330   -0.4652 C   0  0  0  0  0  0  0  0  0  0  0  0
    5.0218    0.6967   -0.1201 C   0  0  0  0  0  0  0  0  0  0  0  0
    3.6428    0.7435    0.2063 C   0  0  0  0  0  0  0  0  0  0  0  0
    2.8413   -0.4602    0.0079 C   0  0  0  0  0  0  0  0  0  0  0  0
    1.4267   -0.4569   -0.0124 C   0  0  0  0  0  0  0  0  0  0  0  0
    0.6817    0.7335   -0.0516 C   0  0  0  0  0  0  0  0  0  0  0  0
   -0.6692    0.7374    0.0417 C   0  0  0  0  0  0  0  0  0  0  0  0
   -1.4183   -0.4508    0.0420 C   0  0  0  0  0  0  0  0  0  0  0  0
   -2.8327   -0.4502    0.0419 C   0  0  0  0  0  0  0  0  0  0  0  0
   -3.6391    0.7463   -0.1802 C   0  0  0  0  0  0  0  0  0  0  0  0
   -5.0212    0.6962    0.1293 C   0  0  0  0  0  0  0  0  0  0  0  0
   -5.7796    1.8749    0.1050 C   0  0  0  0  0  0  0  0  0  0  0  0
   -5.2245    3.0260   -0.3675 C   0  0  0  0  0  0  0  0  0  0  0  0
   -3.9101    3.0391   -0.8207 C   0  0  0  0  0  0  0  0  0  0  0  0
   -3.1320    1.9194   -0.7460 C   0  0  0  0  0  0  0  0  0  0  0  0
    3.1192    1.9304    0.7213 C   0  0  0  0  0  0  0  0  0  0  0  0
    3.8916    3.0541    0.7881 C   0  0  0  0  0  0  0  0  0  0  0  0
    5.2177    3.0318    0.3708 C   0  0  0  0  0  0  0  0  0  0  0  0
    5.7771    1.8800   -0.0966 C   0  0  0  0  0  0  0  0  0  0  0  0
   -6.6815   -0.5732    0.6679 H   0  0  0  0  0  0  0  0  0  0  0  0
   -5.3910   -2.6090    0.7247 H   0  0  0  0  0  0  0  0  0  0  0  0
   -3.3400   -3.8232    0.1990 H   0  0  0  0  0  0  0  0  0  0  0  0
   -0.9271   -3.8348    0.0014 H   0  0  0  0  0  0  0  0  0  0  0  0
    0.9278   -3.8390   -0.0415 H   0  0  0  0  0  0  0  0  0  0  0  0
    3.3360   -3.8275   -0.2762 H   0  0  0  0  0  0  0  0  0  0  0  0
    5.4002   -2.6062   -0.7141 H   0  0  0  0  0  0  0  0  0  0  0  0
    6.6702   -0.5587   -0.7196 H   0  0  0  0  0  0  0  0  0  0  0  0
    1.1788    1.6771   -0.2130 H   0  0  0  0  0  0  0  0  0  0  0  0
   -1.1631    1.6881    0.1712 H   0  0  0  0  0  0  0  0  0  0  0  0
   -6.7981    1.8690    0.4641 H   0  0  0  0  0  0  0  0  0  0  0  0
   -5.8092    3.9324   -0.3878 H   0  0  0  0  0  0  0  0  0  0  0  0
   -3.5029    3.9458   -1.2449 H   0  0  0  0  0  0  0  0  0  0  0  0
   -2.1413    1.9457   -1.1757 H   0  0  0  0  0  0  0  0  0  0  0  0
    2.1206    1.9641    1.1313 H   0  0  0  0  0  0  0  0  0  0  0  0
    3.4660    3.9742    1.1608 H   0  0  0  0  0  0  0  0  0  0  0  0
    5.8139    3.9292    0.4270 H   0  0  0  0  0  0  0  0  0  0  0  0
    6.7946    1.8764   -0.4588 H   0  0  0  0  0  0  0  0  0  0  0  0
  1  2  2  0  0  0  0
  2  3  1  0  0  0  0
  3  4  1  0  0  0  0
  4  5  2  0  0  0  0
  5  6  1  0  0  0  0
  6  7  1  0  0  0  0
  7  8  1  0  0  0  0
  8  9  2  0  0  0  0
  9 10  1  0  0  0  0
 10 11  1  0  0  0  0
 11 12  2  0  0  0  0
 12 13  1  0  0  0  0
 13 14  2  0  0  0  0
 14 15  1  0  0  0  0
 10 15  2  0  0  0  0
 15 16  1  0  0  0  0
  7 16  2  0  0  0  0
 16 17  1  0  0  0  0
 17 18  2  0  0  0  0
 18 19  1  0  0  0  0
  6 19  2  0  0  0  0
 19 20  1  0  0  0  0
  3 20  2  0  0  0  0
 20 21  1  0  0  0  0
 21 22  2  0  0  0  0
  1 22  1  0  0  0  0
 22 23  1  0  0  0  0
 23 24  2  0  0  0  0
 24 25  1  0  0  0  0
 25 26  2  0  0  0  0
 21 26  1  0  0  0  0
 14 27  1  0  0  0  0
 27 28  2  0  0  0  0
 28 29  1  0  0  0  0
 29 30  2  0  0  0  0
 13 30  1  0  0  0  0
  1 31  1  0  0  0  0
  2 32  1  0  0  0  0
  4 33  1  0  0  0  0
  5 34  1  0  0  0  0
  8 35  1  0  0  0  0
  9 36  1  0  0  0  0
 11 37  1  0  0  0  0
 12 38  1  0  0  0  0
 17 39  1  0  0  0  0
 18 40  1  0  0  0  0
 23 41  1  0  0  0  0
 24 42  1  0  0  0  0
 25 43  1  0  0  0  0
 26 44  1  0  0  0  0
 27 45  1  0  0  0  0
 28 46  1  0  0  0  0
 29 47  1  0  0  0  0
 30 48  1  0  0  0  0
M  END
$$$$
