C36H18
APtclcactv01171906273D 0   0.00000     0.00000
 
 54 63  0  0  0  0  0  0  0  0999 V2000
   -4.0363   -3.4281   -0.0205 C   0  0  0  0  0  0  0  0  0  0  0  0
   -5.2001   -2.7323   -0.2680 C   0  0  0  0  0  0  0  0  0  0  0  0
   -5.2086   -1.3480   -0.2881 C   0  0  0  0  0  0  0  0  0  0  0  0
   -4.0307   -0.6349   -0.0918 C   0  0  0  0  0  0  0  0  0  0  0  0
   -4.0293    0.8345   -0.0242 C   0  0  0  0  0  0  0  0  0  0  0  0
   -2.8002    1.5167    0.1160 C   0  0  0  0  0  0  0  0  0  0  0  0
   -1.5423    0.7664    0.0086 C   0  0  0  0  0  0  0  0  0  0  0  0
   -0.3008    1.4051   -0.1798 C   0  0  0  0  0  0  0  0  0  0  0  0
   -0.2047    2.7769   -0.4913 C   0  0  0  0  0  0  0  0  0  0  0  0
    0.9791    3.4341   -0.4430 C   0  0  0  0  0  0  0  0  0  0  0  0
    2.1729    2.7354   -0.1639 C   0  0  0  0  0  0  0  0  0  0  0  0
    2.1349    1.3279   -0.0798 C   0  0  0  0  0  0  0  0  0  0  0  0
    3.3457    0.6138    0.0218 C   0  0  0  0  0  0  0  0  0  0  0  0
    3.3446   -0.7947   -0.0372 C   0  0  0  0  0  0  0  0  0  0  0  0
    2.1225   -1.5027   -0.1305 C   0  0  0  0  0  0  0  0  0  0  0  0
    0.8603   -0.7614   -0.0044 C   0  0  0  0  0  0  0  0  0  0  0  0
   -0.3786   -1.3940    0.1987 C   0  0  0  0  0  0  0  0  0  0  0  0
   -0.4634   -2.7619    0.5369 C   0  0  0  0  0  0  0  0  0  0  0  0
   -1.6394   -3.4263    0.4922 C   0  0  0  0  0  0  0  0  0  0  0  0
   -2.8356   -2.7392    0.1797 C   0  0  0  0  0  0  0  0  0  0  0  0
   -2.8146   -1.3304    0.0655 C   0  0  0  0  0  0  0  0  0  0  0  0
   -1.5780   -0.6430    0.0832 C   0  0  0  0  0  0  0  0  0  0  0  0
    0.8951    0.6489   -0.0854 C   0  0  0  0  0  0  0  0  0  0  0  0
    2.1742   -2.8733   -0.3572 C   0  0  0  0  0  0  0  0  0  0  0  0
    3.3874   -3.5433   -0.3732 C   0  0  0  0  0  0  0  0  0  0  0  0
    4.5777   -2.8758   -0.1856 C   0  0  0  0  0  0  0  0  0  0  0  0
    4.5753   -1.4862   -0.0122 C   0  0  0  0  0  0  0  0  0  0  0  0
    5.7763   -0.7660    0.1856 C   0  0  0  0  0  0  0  0  0  0  0  0
    5.7695    0.5845    0.2782 C   0  0  0  0  0  0  0  0  0  0  0  0
    4.5627    1.3115    0.1744 C   0  0  0  0  0  0  0  0  0  0  0  0
    4.5498    2.7177    0.2098 C   0  0  0  0  0  0  0  0  0  0  0  0
    3.3910    3.4078    0.0406 C   0  0  0  0  0  0  0  0  0  0  0  0
   -2.8264    2.8905    0.3621 C   0  0  0  0  0  0  0  0  0  0  0  0
   -4.0161    3.5827    0.3213 C   0  0  0  0  0  0  0  0  0  0  0  0
   -5.2087    2.9219    0.0647 C   0  0  0  0  0  0  0  0  0  0  0  0
   -5.2207    1.5545   -0.0981 C   0  0  0  0  0  0  0  0  0  0  0  0
   -4.0537   -4.5071    0.0232 H   0  0  0  0  0  0  0  0  0  0  0  0
   -6.1173   -3.2729   -0.4474 H   0  0  0  0  0  0  0  0  0  0  0  0
   -6.1378   -0.8250   -0.4583 H   0  0  0  0  0  0  0  0  0  0  0  0
   -1.0756    3.3163   -0.8325 H   0  0  0  0  0  0  0  0  0  0  0  0
    1.0079    4.4984   -0.6189 H   0  0  0  0  0  0  0  0  0  0  0  0
    0.4111   -3.2864    0.8914 H   0  0  0  0  0  0  0  0  0  0  0  0
   -1.6647   -4.4862    0.6941 H   0  0  0  0  0  0  0  0  0  0  0  0
    1.2747   -3.4296   -0.5743 H   0  0  0  0  0  0  0  0  0  0  0  0
    3.3989   -4.6112   -0.5350 H   0  0  0  0  0  0  0  0  0  0  0  0
    5.5090   -3.4210   -0.1722 H   0  0  0  0  0  0  0  0  0  0  0  0
    6.7116   -1.3007    0.2616 H   0  0  0  0  0  0  0  0  0  0  0  0
    6.6984    1.1129    0.4321 H   0  0  0  0  0  0  0  0  0  0  0  0
    5.4715    3.2556    0.3729 H   0  0  0  0  0  0  0  0  0  0  0  0
    3.4072    4.4872    0.0634 H   0  0  0  0  0  0  0  0  0  0  0  0
   -1.9274    3.4195    0.6422 H   0  0  0  0  0  0  0  0  0  0  0  0
   -4.0205    4.6493    0.4909 H   0  0  0  0  0  0  0  0  0  0  0  0
   -6.1293    3.4802   -0.0094 H   0  0  0  0  0  0  0  0  0  0  0  0
   -6.1548    1.0456   -0.2860 H   0  0  0  0  0  0  0  0  0  0  0  0
  1  2  2  0  0  0  0
  2  3  1  0  0  0  0
  3  4  2  0  0  0  0
  4  5  1  0  0  0  0
  5  6  2  0  0  0  0
  6  7  1  0  0  0  0
  7  8  2  0  0  0  0
  8  9  1  0  0  0  0
  9 10  2  0  0  0  0
 10 11  1  0  0  0  0
 11 12  2  0  0  0  0
 12 13  1  0  0  0  0
 13 14  1  0  0  0  0
 14 15  1  0  0  0  0
 15 16  1  0  0  0  0
 16 17  1  0  0  0  0
 17 18  1  0  0  0  0
 18 19  2  0  0  0  0
 19 20  1  0  0  0  0
  1 20  1  0  0  0  0
 20 21  2  0  0  0  0
  4 21  1  0  0  0  0
 21 22  1  0  0  0  0
  7 22  1  0  0  0  0
 17 22  2  0  0  0  0
 16 23  2  0  0  0  0
 12 23  1  0  0  0  0
  8 23  1  0  0  0  0
 15 24  2  0  0  0  0
 24 25  1  0  0  0  0
 25 26  2  0  0  0  0
 26 27  1  0  0  0  0
 14 27  2  0  0  0  0
 27 28  1  0  0  0  0
 28 29  2  0  0  0  0
 29 30  1  0  0  0  0
 13 30  2  0  0  0  0
 30 31  1  0  0  0  0
 31 32  2  0  0  0  0
 11 32  1  0  0  0  0
  6 33  1  0  0  0  0
 33 34  2  0  0  0  0
 34 35  1  0  0  0  0
 35 36  2  0  0  0  0
  5 36  1  0  0  0  0
  1 37  1  0  0  0  0
  2 38  1  0  0  0  0
  3 39  1  0  0  0  0
  9 40  1  0  0  0  0
 10 41  1  0  0  0  0
 18 42  1  0  0  0  0
 19 43  1  0  0  0  0
 24 44  1  0  0  0  0
 25 45  1  0  0  0  0
 26 46  1  0  0  0  0
 28 47  1  0  0  0  0
 29 48  1  0  0  0  0
 31 49  1  0  0  0  0
 32 50  1  0  0  0  0
 33 51  1  0  0  0  0
 34 52  1  0  0  0  0
 35 53  1  0  0  0  0
 36 54  1  0  0  0  0
M  END
$$$$
