C30H18
APtclcactv01171906253D 0   0.00000     0.00000
 
 48 54  0  0  0  0  0  0  0  0999 V2000
   -6.5220    1.7719    0.0013 C   0  0  0  0  0  0  0  0  0  0  0  0
   -7.4234    0.7473    0.0029 C   0  0  0  0  0  0  0  0  0  0  0  0
   -6.9982   -0.5753    0.0031 C   0  0  0  0  0  0  0  0  0  0  0  0
   -5.6667   -0.8809    0.0021 C   0  0  0  0  0  0  0  0  0  0  0  0
   -4.7202    0.1459    0.0005 C   0  0  0  0  0  0  0  0  0  0  0  0
   -3.2815   -0.1495   -0.0002 C   0  0  0  0  0  0  0  0  0  0  0  0
   -2.8269   -1.4629   -0.0001 C   0  0  0  0  0  0  0  0  0  0  0  0
   -1.4568   -1.7242   -0.0010 C   0  0  0  0  0  0  0  0  0  0  0  0
   -0.9692   -3.1018   -0.0005 C   0  0  0  0  0  0  0  0  0  0  0  0
    0.3505   -3.3706   -0.0005 C   0  0  0  0  0  0  0  0  0  0  0  0
    1.3383   -2.2930   -0.0010 C   0  0  0  0  0  0  0  0  0  0  0  0
    2.7004   -2.5888    0.0000 C   0  0  0  0  0  0  0  0  0  0  0  0
    3.6363   -1.5544   -0.0000 C   0  0  0  0  0  0  0  0  0  0  0  0
    5.0660   -1.8536    0.0015 C   0  0  0  0  0  0  0  0  0  0  0  0
    5.9810   -0.8633    0.0020 C   0  0  0  0  0  0  0  0  0  0  0  0
    5.5701    0.5366    0.0010 C   0  0  0  0  0  0  0  0  0  0  0  0
    4.1985    0.8693   -0.0006 C   0  0  0  0  0  0  0  0  0  0  0  0
    3.1989   -0.2062   -0.0011 C   0  0  0  0  0  0  0  0  0  0  0  0
    1.8394    0.0884   -0.0021 C   0  0  0  0  0  0  0  0  0  0  0  0
    0.9084   -0.9429   -0.0021 C   0  0  0  0  0  0  0  0  0  0  0  0
   -0.5334   -0.6489   -0.0021 C   0  0  0  0  0  0  0  0  0  0  0  0
   -0.9860    0.6630   -0.0027 C   0  0  0  0  0  0  0  0  0  0  0  0
   -2.3579    0.9255   -0.0013 C   0  0  0  0  0  0  0  0  0  0  0  0
   -2.8446    2.3018   -0.0025 C   0  0  0  0  0  0  0  0  0  0  0  0
   -4.1665    2.5693   -0.0016 C   0  0  0  0  0  0  0  0  0  0  0  0
   -5.1488    1.4905   -0.0002 C   0  0  0  0  0  0  0  0  0  0  0  0
    3.8127    2.2116   -0.0006 C   0  0  0  0  0  0  0  0  0  0  0  0
    4.7656    3.1905    0.0009 C   0  0  0  0  0  0  0  0  0  0  0  0
    6.1166    2.8664    0.0020 C   0  0  0  0  0  0  0  0  0  0  0  0
    6.5237    1.5639    0.0019 C   0  0  0  0  0  0  0  0  0  0  0  0
   -6.8654    2.7958   -0.0033 H   0  0  0  0  0  0  0  0  0  0  0  0
   -8.4807    0.9674    0.0044 H   0  0  0  0  0  0  0  0  0  0  0  0
   -7.7286   -1.3709    0.0044 H   0  0  0  0  0  0  0  0  0  0  0  0
   -5.3473   -1.9126    0.0030 H   0  0  0  0  0  0  0  0  0  0  0  0
   -3.5334   -2.2798    0.0011 H   0  0  0  0  0  0  0  0  0  0  0  0
   -1.6780   -3.9167    0.0002 H   0  0  0  0  0  0  0  0  0  0  0  0
    0.6840   -4.3978    0.0002 H   0  0  0  0  0  0  0  0  0  0  0  0
    3.0306   -3.6170    0.0012 H   0  0  0  0  0  0  0  0  0  0  0  0
    5.3947   -2.8824    0.0027 H   0  0  0  0  0  0  0  0  0  0  0  0
    7.0325   -1.1098    0.0035 H   0  0  0  0  0  0  0  0  0  0  0  0
    1.5083    1.1164   -0.0026 H   0  0  0  0  0  0  0  0  0  0  0  0
   -0.2789    1.4794   -0.0028 H   0  0  0  0  0  0  0  0  0  0  0  0
   -2.1364    3.1171   -0.0037 H   0  0  0  0  0  0  0  0  0  0  0  0
   -4.5024    3.5957   -0.0021 H   0  0  0  0  0  0  0  0  0  0  0  0
    2.7652    2.4747   -0.0021 H   0  0  0  0  0  0  0  0  0  0  0  0
    4.4653    4.2279    0.0009 H   0  0  0  0  0  0  0  0  0  0  0  0
    6.8540    3.6554    0.0028 H   0  0  0  0  0  0  0  0  0  0  0  0
    7.5771    1.3254    0.0031 H   0  0  0  0  0  0  0  0  0  0  0  0
  1  2  2  0  0  0  0
  2  3  1  0  0  0  0
  3  4  2  0  0  0  0
  4  5  1  0  0  0  0
  5  6  1  0  0  0  0
  6  7  1  0  0  0  0
  7  8  2  0  0  0  0
  8  9  1  0  0  0  0
  9 10  2  0  0  0  0
 10 11  1  0  0  0  0
 11 12  1  0  0  0  0
 12 13  2  0  0  0  0
 13 14  1  0  0  0  0
 14 15  2  0  0  0  0
 15 16  1  0  0  0  0
 16 17  2  0  0  0  0
 17 18  1  0  0  0  0
 13 18  1  0  0  0  0
 18 19  2  0  0  0  0
 19 20  1  0  0  0  0
 11 20  2  0  0  0  0
 20 21  1  0  0  0  0
  8 21  1  0  0  0  0
 21 22  2  0  0  0  0
 22 23  1  0  0  0  0
  6 23  2  0  0  0  0
 23 24  1  0  0  0  0
 24 25  2  0  0  0  0
 25 26  1  0  0  0  0
  5 26  2  0  0  0  0
  1 26  1  0  0  0  0
 17 27  1  0  0  0  0
 27 28  2  0  0  0  0
 28 29  1  0  0  0  0
 29 30  2  0  0  0  0
 16 30  1  0  0  0  0
  1 31  1  0  0  0  0
  2 32  1  0  0  0  0
  3 33  1  0  0  0  0
  4 34  1  0  0  0  0
  7 35  1  0  0  0  0
  9 36  1  0  0  0  0
 10 37  1  0  0  0  0
 12 38  1  0  0  0  0
 14 39  1  0  0  0  0
 15 40  1  0  0  0  0
 19 41  1  0  0  0  0
 22 42  1  0  0  0  0
 24 43  1  0  0  0  0
 25 44  1  0  0  0  0
 27 45  1  0  0  0  0
 28 46  1  0  0  0  0
 29 47  1  0  0  0  0
 30 48  1  0  0  0  0
M  END
$$$$
