C28H16
APtclcactv01171906263D 0   0.00000     0.00000
 
 44 50  0  0  0  0  0  0  0  0999 V2000
   -6.0455    1.1105   -0.0002 C   0  0  0  0  0  0  0  0  0  0  0  0
   -6.7785   -0.0396   -0.0009 C   0  0  0  0  0  0  0  0  0  0  0  0
   -6.1563   -1.2828   -0.0012 C   0  0  0  0  0  0  0  0  0  0  0  0
   -4.7941   -1.3827   -0.0004 C   0  0  0  0  0  0  0  0  0  0  0  0
   -4.0161   -0.2234    0.0002 C   0  0  0  0  0  0  0  0  0  0  0  0
   -4.6442    1.0420    0.0001 C   0  0  0  0  0  0  0  0  0  0  0  0
   -3.8592    2.2165    0.0002 C   0  0  0  0  0  0  0  0  0  0  0  0
   -2.5090    2.1560    0.0005 C   0  0  0  0  0  0  0  0  0  0  0  0
   -1.8248    0.9259    0.0003 C   0  0  0  0  0  0  0  0  0  0  0  0
   -0.3639    0.8893    0.0002 C   0  0  0  0  0  0  0  0  0  0  0  0
    0.2754   -0.3660    0.0001 C   0  0  0  0  0  0  0  0  0  0  0  0
    1.6786   -0.4315    0.0001 C   0  0  0  0  0  0  0  0  0  0  0  0
    2.4301    0.7580    0.0001 C   0  0  0  0  0  0  0  0  0  0  0  0
    3.8895    0.6574    0.0002 C   0  0  0  0  0  0  0  0  0  0  0  0
    4.6876    1.8067   -0.0003 C   0  0  0  0  0  0  0  0  0  0  0  0
    6.0464    1.6898   -0.0006 C   0  0  0  0  0  0  0  0  0  0  0  0
    6.6535    0.4370   -0.0005 C   0  0  0  0  0  0  0  0  0  0  0  0
    5.9085   -0.7019   -0.0005 C   0  0  0  0  0  0  0  0  0  0  0  0
    4.5020   -0.6207    0.0003 C   0  0  0  0  0  0  0  0  0  0  0  0
    3.7289   -1.7941   -0.0002 C   0  0  0  0  0  0  0  0  0  0  0  0
    2.3447   -1.7347    0.0006 C   0  0  0  0  0  0  0  0  0  0  0  0
    1.5318   -2.9508   -0.0004 C   0  0  0  0  0  0  0  0  0  0  0  0
    0.1834   -2.8863    0.0001 C   0  0  0  0  0  0  0  0  0  0  0  0
   -0.5094   -1.5990    0.0006 C   0  0  0  0  0  0  0  0  0  0  0  0
   -1.8965   -1.5230    0.0010 C   0  0  0  0  0  0  0  0  0  0  0  0
   -2.5484   -0.2881    0.0016 C   0  0  0  0  0  0  0  0  0  0  0  0
    1.7694    1.9976    0.0005 C   0  0  0  0  0  0  0  0  0  0  0  0
    0.4099    2.0621   -0.0004 C   0  0  0  0  0  0  0  0  0  0  0  0
   -6.5417    2.0698   -0.0044 H   0  0  0  0  0  0  0  0  0  0  0  0
   -7.8570    0.0162   -0.0008 H   0  0  0  0  0  0  0  0  0  0  0  0
   -6.7572   -2.1803   -0.0018 H   0  0  0  0  0  0  0  0  0  0  0  0
   -4.3211   -2.3536    0.0000 H   0  0  0  0  0  0  0  0  0  0  0  0
   -4.3468    3.1801   -0.0003 H   0  0  0  0  0  0  0  0  0  0  0  0
   -1.9408    3.0745    0.0006 H   0  0  0  0  0  0  0  0  0  0  0  0
    4.2286    2.7843   -0.0008 H   0  0  0  0  0  0  0  0  0  0  0  0
    6.6586    2.5795   -0.0014 H   0  0  0  0  0  0  0  0  0  0  0  0
    7.7313    0.3679   -0.0007 H   0  0  0  0  0  0  0  0  0  0  0  0
    6.3946   -1.6663   -0.0011 H   0  0  0  0  0  0  0  0  0  0  0  0
    4.2205   -2.7557   -0.0015 H   0  0  0  0  0  0  0  0  0  0  0  0
    2.0179   -3.9152   -0.0018 H   0  0  0  0  0  0  0  0  0  0  0  0
   -0.3925   -3.7999   -0.0007 H   0  0  0  0  0  0  0  0  0  0  0  0
   -2.4793   -2.4323    0.0007 H   0  0  0  0  0  0  0  0  0  0  0  0
    2.3470    2.9101    0.0007 H   0  0  0  0  0  0  0  0  0  0  0  0
   -0.0793    3.0250    0.0002 H   0  0  0  0  0  0  0  0  0  0  0  0
  1  2  2  0  0  0  0
  2  3  1  0  0  0  0
  3  4  2  0  0  0  0
  4  5  1  0  0  0  0
  5  6  2  0  0  0  0
  1  6  1  0  0  0  0
  6  7  1  0  0  0  0
  7  8  2  0  0  0  0
  8  9  1  0  0  0  0
  9 10  2  0  0  0  0
 10 11  1  0  0  0  0
 11 12  2  0  0  0  0
 12 13  1  0  0  0  0
 13 14  2  0  0  0  0
 14 15  1  0  0  0  0
 15 16  2  0  0  0  0
 16 17  1  0  0  0  0
 17 18  2  0  0  0  0
 18 19  1  0  0  0  0
 14 19  1  0  0  0  0
 19 20  2  0  0  0  0
 20 21  1  0  0  0  0
 12 21  1  0  0  0  0
 21 22  2  0  0  0  0
 22 23  1  0  0  0  0
 23 24  2  0  0  0  0
 11 24  1  0  0  0  0
 24 25  1  0  0  0  0
 25 26  2  0  0  0  0
  5 26  1  0  0  0  0
  9 26  1  0  0  0  0
 13 27  1  0  0  0  0
 27 28  2  0  0  0  0
 10 28  1  0  0  0  0
  1 29  1  0  0  0  0
  2 30  1  0  0  0  0
  3 31  1  0  0  0  0
  4 32  1  0  0  0  0
  7 33  1  0  0  0  0
  8 34  1  0  0  0  0
 15 35  1  0  0  0  0
 16 36  1  0  0  0  0
 17 37  1  0  0  0  0
 18 38  1  0  0  0  0
 20 39  1  0  0  0  0
 22 40  1  0  0  0  0
 23 41  1  0  0  0  0
 25 42  1  0  0  0  0
 27 43  1  0  0  0  0
 28 44  1  0  0  0  0
M  END
$$$$
