C30H18
APtclcactv01171906253D 0   0.00000     0.00000
 
 48 54  0  0  0  0  0  0  0  0999 V2000
    3.5292   -2.0843    0.3910 C   0  0  0  0  0  0  0  0  0  0  0  0
    4.3638   -3.1658    0.3685 C   0  0  0  0  0  0  0  0  0  0  0  0
    5.7185   -3.0186    0.0884 C   0  0  0  0  0  0  0  0  0  0  0  0
    6.2477   -1.7823   -0.1345 C   0  0  0  0  0  0  0  0  0  0  0  0
    5.4245   -0.6494   -0.0703 C   0  0  0  0  0  0  0  0  0  0  0  0
    4.0273   -0.8084    0.1142 C   0  0  0  0  0  0  0  0  0  0  0  0
    3.1755    0.3700    0.0042 C   0  0  0  0  0  0  0  0  0  0  0  0
    1.7245    0.3105   -0.1289 C   0  0  0  0  0  0  0  0  0  0  0  0
    1.0402   -0.8844   -0.3930 C   0  0  0  0  0  0  0  0  0  0  0  0
   -0.3169   -0.9466   -0.3709 C   0  0  0  0  0  0  0  0  0  0  0  0
   -1.0964    0.1956   -0.1518 C   0  0  0  0  0  0  0  0  0  0  0  0
   -2.5607    0.1199   -0.0650 C   0  0  0  0  0  0  0  0  0  0  0  0
   -3.2245   -1.0952   -0.0901 C   0  0  0  0  0  0  0  0  0  0  0  0
   -4.6208   -1.1202   -0.0299 C   0  0  0  0  0  0  0  0  0  0  0  0
   -5.3763    0.1337    0.0423 C   0  0  0  0  0  0  0  0  0  0  0  0
   -4.7013    1.3542    0.0867 C   0  0  0  0  0  0  0  0  0  0  0  0
   -3.3108    1.3745    0.0491 C   0  0  0  0  0  0  0  0  0  0  0  0
   -2.6003    2.5968    0.1287 C   0  0  0  0  0  0  0  0  0  0  0  0
   -1.2518    2.6219    0.1044 C   0  0  0  0  0  0  0  0  0  0  0  0
   -0.4755    1.4524   -0.0169 C   0  0  0  0  0  0  0  0  0  0  0  0
    0.9848    1.5124   -0.0046 C   0  0  0  0  0  0  0  0  0  0  0  0
    1.6549    2.7418    0.1108 C   0  0  0  0  0  0  0  0  0  0  0  0
    3.0062    2.8063    0.1072 C   0  0  0  0  0  0  0  0  0  0  0  0
    3.7928    1.6412    0.0131 C   0  0  0  0  0  0  0  0  0  0  0  0
    5.1967    1.7426   -0.0961 C   0  0  0  0  0  0  0  0  0  0  0  0
    5.9799    0.6459   -0.1541 C   0  0  0  0  0  0  0  0  0  0  0  0
   -6.7851    0.0757    0.0638 C   0  0  0  0  0  0  0  0  0  0  0  0
   -7.4051   -1.1330    0.0453 C   0  0  0  0  0  0  0  0  0  0  0  0
   -6.6861   -2.3264    0.0034 C   0  0  0  0  0  0  0  0  0  0  0  0
   -5.3280   -2.3389   -0.0314 C   0  0  0  0  0  0  0  0  0  0  0  0
    2.4960   -2.2266    0.6685 H   0  0  0  0  0  0  0  0  0  0  0  0
    3.9638   -4.1496    0.5676 H   0  0  0  0  0  0  0  0  0  0  0  0
    6.3545   -3.8893    0.0466 H   0  0  0  0  0  0  0  0  0  0  0  0
    7.3001   -1.6753   -0.3569 H   0  0  0  0  0  0  0  0  0  0  0  0
    1.5872   -1.7722   -0.6697 H   0  0  0  0  0  0  0  0  0  0  0  0
   -0.7988   -1.8991   -0.5271 H   0  0  0  0  0  0  0  0  0  0  0  0
   -2.6707   -2.0199   -0.1513 H   0  0  0  0  0  0  0  0  0  0  0  0
   -5.2555    2.2789    0.1492 H   0  0  0  0  0  0  0  0  0  0  0  0
   -3.1470    3.5250    0.2082 H   0  0  0  0  0  0  0  0  0  0  0  0
   -0.7550    3.5766    0.1810 H   0  0  0  0  0  0  0  0  0  0  0  0
    1.0867    3.6545    0.2020 H   0  0  0  0  0  0  0  0  0  0  0  0
    3.4923    3.7688    0.1772 H   0  0  0  0  0  0  0  0  0  0  0  0
    5.6530    2.7212   -0.1310 H   0  0  0  0  0  0  0  0  0  0  0  0
    7.0483    0.7589   -0.2647 H   0  0  0  0  0  0  0  0  0  0  0  0
   -7.3670    0.9847    0.0932 H   0  0  0  0  0  0  0  0  0  0  0  0
   -8.4841   -1.1704    0.0619 H   0  0  0  0  0  0  0  0  0  0  0  0
   -7.2212   -3.2640    0.0003 H   0  0  0  0  0  0  0  0  0  0  0  0
   -4.7940   -3.2768   -0.0591 H   0  0  0  0  0  0  0  0  0  0  0  0
  1  2  2  0  0  0  0
  2  3  1  0  0  0  0
  3  4  2  0  0  0  0
  4  5  1  0  0  0  0
  5  6  1  0  0  0  0
  1  6  1  0  0  0  0
  6  7  2  0  0  0  0
  7  8  1  0  0  0  0
  8  9  1  0  0  0  0
  9 10  2  0  0  0  0
 10 11  1  0  0  0  0
 11 12  2  0  0  0  0
 12 13  1  0  0  0  0
 13 14  2  0  0  0  0
 14 15  1  0  0  0  0
 15 16  2  0  0  0  0
 16 17  1  0  0  0  0
 12 17  1  0  0  0  0
 17 18  2  0  0  0  0
 18 19  1  0  0  0  0
 19 20  2  0  0  0  0
 11 20  1  0  0  0  0
 20 21  1  0  0  0  0
  8 21  2  0  0  0  0
 21 22  1  0  0  0  0
 22 23  2  0  0  0  0
 23 24  1  0  0  0  0
  7 24  1  0  0  0  0
 24 25  2  0  0  0  0
 25 26  1  0  0  0  0
  5 26  2  0  0  0  0
 15 27  1  0  0  0  0
 27 28  2  0  0  0  0
 28 29  1  0  0  0  0
 29 30  2  0  0  0  0
 14 30  1  0  0  0  0
  1 31  1  0  0  0  0
  2 32  1  0  0  0  0
  3 33  1  0  0  0  0
  4 34  1  0  0  0  0
  9 35  1  0  0  0  0
 10 36  1  0  0  0  0
 13 37  1  0  0  0  0
 16 38  1  0  0  0  0
 18 39  1  0  0  0  0
 19 40  1  0  0  0  0
 22 41  1  0  0  0  0
 23 42  1  0  0  0  0
 25 43  1  0  0  0  0
 26 44  1  0  0  0  0
 27 45  1  0  0  0  0
 28 46  1  0  0  0  0
 29 47  1  0  0  0  0
 30 48  1  0  0  0  0
M  END
$$$$
