C24H12
APtclcactv01171906263D 0   0.00000     0.00000
 
 36 42  0  0  0  0  0  0  0  0999 V2000
   -2.1653   -2.9099   -0.0010 C   0  0  0  0  0  0  0  0  0  0  0  0
   -3.4493   -2.4369   -0.0008 C   0  0  0  0  0  0  0  0  0  0  0  0
   -3.4122   -0.9804    0.0011 C   0  0  0  0  0  0  0  0  0  0  0  0
   -2.0443   -0.6747    0.0001 C   0  0  0  0  0  0  0  0  0  0  0  0
   -1.2532   -1.8324   -0.0006 C   0  0  0  0  0  0  0  0  0  0  0  0
    0.1487   -1.6439   -0.0014 C   0  0  0  0  0  0  0  0  0  0  0  0
    0.6729   -0.3211   -0.0020 C   0  0  0  0  0  0  0  0  0  0  0  0
    2.0624   -0.1009   -0.0012 C   0  0  0  0  0  0  0  0  0  0  0  0
    2.9299   -1.2180   -0.0003 C   0  0  0  0  0  0  0  0  0  0  0  0
    4.3111   -1.0018    0.0031 C   0  0  0  0  0  0  0  0  0  0  0  0
    4.8125    0.2882    0.0052 C   0  0  0  0  0  0  0  0  0  0  0  0
    3.9809    1.3858    0.0038 C   0  0  0  0  0  0  0  0  0  0  0  0
    2.5831    1.2169   -0.0010 C   0  0  0  0  0  0  0  0  0  0  0  0
    1.7342    2.3421   -0.0032 C   0  0  0  0  0  0  0  0  0  0  0  0
    0.3563    2.1687   -0.0038 C   0  0  0  0  0  0  0  0  0  0  0  0
   -0.1704    0.8056   -0.0023 C   0  0  0  0  0  0  0  0  0  0  0  0
   -1.5592    0.6239   -0.0002 C   0  0  0  0  0  0  0  0  0  0  0  0
   -2.4656    1.7099    0.0016 C   0  0  0  0  0  0  0  0  0  0  0  0
   -3.8340    1.4002    0.0053 C   0  0  0  0  0  0  0  0  0  0  0  0
   -4.2940    0.1057    0.0038 C   0  0  0  0  0  0  0  0  0  0  0  0
   -1.9457    3.0220   -0.0009 C   0  0  0  0  0  0  0  0  0  0  0  0
   -0.6085    3.2649   -0.0033 C   0  0  0  0  0  0  0  0  0  0  0  0
    2.3859   -2.5242   -0.0017 C   0  0  0  0  0  0  0  0  0  0  0  0
    1.0463   -2.7297   -0.0020 C   0  0  0  0  0  0  0  0  0  0  0  0
   -1.8900   -3.9542    0.0028 H   0  0  0  0  0  0  0  0  0  0  0  0
   -4.3429   -3.0434   -0.0024 H   0  0  0  0  0  0  0  0  0  0  0  0
    4.9882   -1.8431    0.0044 H   0  0  0  0  0  0  0  0  0  0  0  0
    5.8821    0.4376    0.0085 H   0  0  0  0  0  0  0  0  0  0  0  0
    4.4025    2.3801    0.0062 H   0  0  0  0  0  0  0  0  0  0  0  0
    2.1544    3.3370   -0.0042 H   0  0  0  0  0  0  0  0  0  0  0  0
   -4.5510    2.2078    0.0085 H   0  0  0  0  0  0  0  0  0  0  0  0
   -5.3583   -0.0773    0.0065 H   0  0  0  0  0  0  0  0  0  0  0  0
   -2.6303    3.8573   -0.0011 H   0  0  0  0  0  0  0  0  0  0  0  0
   -0.2538    4.2850   -0.0053 H   0  0  0  0  0  0  0  0  0  0  0  0
    3.0517   -3.3746   -0.0032 H   0  0  0  0  0  0  0  0  0  0  0  0
    0.6619   -3.7390   -0.0026 H   0  0  0  0  0  0  0  0  0  0  0  0
  1  2  2  0  0  0  0
  2  3  1  0  0  0  0
  3  4  1  0  0  0  0
  4  5  2  0  0  0  0
  1  5  1  0  0  0  0
  5  6  1  0  0  0  0
  6  7  2  0  0  0  0
  7  8  1  0  0  0  0
  8  9  1  0  0  0  0
  9 10  2  0  0  0  0
 10 11  1  0  0  0  0
 11 12  2  0  0  0  0
 12 13  1  0  0  0  0
  8 13  2  0  0  0  0
 13 14  1  0  0  0  0
 14 15  2  0  0  0  0
 15 16  1  0  0  0  0
  7 16  1  0  0  0  0
 16 17  2  0  0  0  0
  4 17  1  0  0  0  0
 17 18  1  0  0  0  0
 18 19  2  0  0  0  0
 19 20  1  0  0  0  0
  3 20  2  0  0  0  0
 18 21  1  0  0  0  0
 21 22  2  0  0  0  0
 15 22  1  0  0  0  0
  9 23  1  0  0  0  0
 23 24  2  0  0  0  0
  6 24  1  0  0  0  0
  1 25  1  0  0  0  0
  2 26  1  0  0  0  0
 10 27  1  0  0  0  0
 11 28  1  0  0  0  0
 12 29  1  0  0  0  0
 14 30  1  0  0  0  0
 19 31  1  0  0  0  0
 20 32  1  0  0  0  0
 21 33  1  0  0  0  0
 22 34  1  0  0  0  0
 23 35  1  0  0  0  0
 24 36  1  0  0  0  0
M  END
$$$$
