C30H18
APtclcactv01171906263D 0   0.00000     0.00000
 
 48 54  0  0  0  0  0  0  0  0999 V2000
   -3.5287   -2.6838   -0.2200 C   0  0  0  0  0  0  0  0  0  0  0  0
   -4.8967   -2.6961   -0.3712 C   0  0  0  0  0  0  0  0  0  0  0  0
   -5.6098   -1.5077   -0.3872 C   0  0  0  0  0  0  0  0  0  0  0  0
   -4.9663   -0.3009   -0.2233 C   0  0  0  0  0  0  0  0  0  0  0  0
   -3.5820   -0.2691   -0.0441 C   0  0  0  0  0  0  0  0  0  0  0  0
   -2.8806    0.9960    0.2056 C   0  0  0  0  0  0  0  0  0  0  0  0
   -1.4834    0.9994    0.4023 C   0  0  0  0  0  0  0  0  0  0  0  0
   -0.6993   -0.2152    0.1466 C   0  0  0  0  0  0  0  0  0  0  0  0
    0.6950   -0.2110   -0.0229 C   0  0  0  0  0  0  0  0  0  0  0  0
    1.4655    1.0042   -0.3249 C   0  0  0  0  0  0  0  0  0  0  0  0
    2.8671    1.0142   -0.1658 C   0  0  0  0  0  0  0  0  0  0  0  0
    3.5892   -0.2516    0.0449 C   0  0  0  0  0  0  0  0  0  0  0  0
    4.9765   -0.2751    0.1820 C   0  0  0  0  0  0  0  0  0  0  0  0
    5.6324   -1.4780    0.3144 C   0  0  0  0  0  0  0  0  0  0  0  0
    4.9259   -2.6722    0.3096 C   0  0  0  0  0  0  0  0  0  0  0  0
    3.5539   -2.6675    0.2023 C   0  0  0  0  0  0  0  0  0  0  0  0
    2.8661   -1.4577    0.0914 C   0  0  0  0  0  0  0  0  0  0  0  0
    1.3928   -1.4346    0.0497 C   0  0  0  0  0  0  0  0  0  0  0  0
    0.6902   -2.6425    0.0250 C   0  0  0  0  0  0  0  0  0  0  0  0
   -0.6698   -2.6462   -0.0181 C   0  0  0  0  0  0  0  0  0  0  0  0
   -1.3823   -1.4440    0.0324 C   0  0  0  0  0  0  0  0  0  0  0  0
   -2.8511   -1.4703   -0.0783 C   0  0  0  0  0  0  0  0  0  0  0  0
    3.5651    2.2158   -0.2599 C   0  0  0  0  0  0  0  0  0  0  0  0
    2.9112    3.3632   -0.6518 C   0  0  0  0  0  0  0  0  0  0  0  0
    1.5677    3.3113   -0.9954 C   0  0  0  0  0  0  0  0  0  0  0  0
    0.8591    2.1417   -0.8615 C   0  0  0  0  0  0  0  0  0  0  0  0
   -0.8820    2.1712    0.8674 C   0  0  0  0  0  0  0  0  0  0  0  0
   -1.6012    3.3394    0.9515 C   0  0  0  0  0  0  0  0  0  0  0  0
   -2.9422    3.3666    0.5995 C   0  0  0  0  0  0  0  0  0  0  0  0
   -3.5830    2.2007    0.2422 C   0  0  0  0  0  0  0  0  0  0  0  0
   -2.9861   -3.6180   -0.2056 H   0  0  0  0  0  0  0  0  0  0  0  0
   -5.4147   -3.6361   -0.4721 H   0  0  0  0  0  0  0  0  0  0  0  0
   -6.6808   -1.5274   -0.5304 H   0  0  0  0  0  0  0  0  0  0  0  0
   -5.5369    0.6139   -0.2370 H   0  0  0  0  0  0  0  0  0  0  0  0
    5.5418    0.6431    0.1912 H   0  0  0  0  0  0  0  0  0  0  0  0
    6.7063   -1.4938    0.4213 H   0  0  0  0  0  0  0  0  0  0  0  0
    5.4532   -3.6095    0.3836 H   0  0  0  0  0  0  0  0  0  0  0  0
    3.0170   -3.6035    0.2012 H   0  0  0  0  0  0  0  0  0  0  0  0
    1.2209   -3.5841    0.0358 H   0  0  0  0  0  0  0  0  0  0  0  0
   -1.1935   -3.5887   -0.0901 H   0  0  0  0  0  0  0  0  0  0  0  0
    4.6168    2.2595   -0.0221 H   0  0  0  0  0  0  0  0  0  0  0  0
    3.4392    4.3024   -0.6806 H   0  0  0  0  0  0  0  0  0  0  0  0
    1.0767    4.1954   -1.3735 H   0  0  0  0  0  0  0  0  0  0  0  0
   -0.1649    2.0988   -1.2078 H   0  0  0  0  0  0  0  0  0  0  0  0
    0.1448    2.1562    1.2042 H   0  0  0  0  0  0  0  0  0  0  0  0
   -1.1186    4.2423    1.2952 H   0  0  0  0  0  0  0  0  0  0  0  0
   -3.4796    4.2991    0.5966 H   0  0  0  0  0  0  0  0  0  0  0  0
   -4.6318    2.2287   -0.0133 H   0  0  0  0  0  0  0  0  0  0  0  0
  1  2  2  0  0  0  0
  2  3  1  0  0  0  0
  3  4  2  0  0  0  0
  4  5  1  0  0  0  0
  5  6  1  0  0  0  0
  6  7  2  0  0  0  0
  7  8  1  0  0  0  0
  8  9  2  0  0  0  0
  9 10  1  0  0  0  0
 10 11  2  0  0  0  0
 11 12  1  0  0  0  0
 12 13  2  0  0  0  0
 13 14  1  0  0  0  0
 14 15  2  0  0  0  0
 15 16  1  0  0  0  0
 16 17  2  0  0  0  0
 12 17  1  0  0  0  0
 17 18  1  0  0  0  0
  9 18  1  0  0  0  0
 18 19  2  0  0  0  0
 19 20  1  0  0  0  0
 20 21  2  0  0  0  0
  8 21  1  0  0  0  0
 21 22  1  0  0  0  0
  5 22  2  0  0  0  0
  1 22  1  0  0  0  0
 11 23  1  0  0  0  0
 23 24  2  0  0  0  0
 24 25  1  0  0  0  0
 25 26  2  0  0  0  0
 10 26  1  0  0  0  0
  7 27  1  0  0  0  0
 27 28  2  0  0  0  0
 28 29  1  0  0  0  0
 29 30  2  0  0  0  0
  6 30  1  0  0  0  0
  1 31  1  0  0  0  0
  2 32  1  0  0  0  0
  3 33  1  0  0  0  0
  4 34  1  0  0  0  0
 13 35  1  0  0  0  0
 14 36  1  0  0  0  0
 15 37  1  0  0  0  0
 16 38  1  0  0  0  0
 19 39  1  0  0  0  0
 20 40  1  0  0  0  0
 23 41  1  0  0  0  0
 24 42  1  0  0  0  0
 25 43  1  0  0  0  0
 26 44  1  0  0  0  0
 27 45  1  0  0  0  0
 28 46  1  0  0  0  0
 29 47  1  0  0  0  0
 30 48  1  0  0  0  0
M  END
$$$$
