C26H16
APtclcactv01171906263D 0   0.00000     0.00000
 
 42 47  0  0  0  0  0  0  0  0999 V2000
    4.4570   -2.3167    0.2034 C   0  0  0  0  0  0  0  0  0  0  0  0
    3.1250   -1.8914    0.0839 C   0  0  0  0  0  0  0  0  0  0  0  0
    2.0566   -2.8063    0.1192 C   0  0  0  0  0  0  0  0  0  0  0  0
    0.7740   -2.3740    0.0788 C   0  0  0  0  0  0  0  0  0  0  0  0
    0.4539   -1.0055    0.0517 C   0  0  0  0  0  0  0  0  0  0  0  0
   -0.9602   -0.5822    0.0158 C   0  0  0  0  0  0  0  0  0  0  0  0
   -1.9617   -1.5421    0.0222 C   0  0  0  0  0  0  0  0  0  0  0  0
   -3.3042   -1.1509   -0.0098 C   0  0  0  0  0  0  0  0  0  0  0  0
   -3.6353    0.2748   -0.0572 C   0  0  0  0  0  0  0  0  0  0  0  0
   -2.6032    1.2174   -0.0716 C   0  0  0  0  0  0  0  0  0  0  0  0
   -1.2825    0.7967   -0.0254 C   0  0  0  0  0  0  0  0  0  0  0  0
   -0.2004    1.7991    0.0072 C   0  0  0  0  0  0  0  0  0  0  0  0
    1.1416    1.3819    0.1170 C   0  0  0  0  0  0  0  0  0  0  0  0
    1.4760   -0.0448    0.0413 C   0  0  0  0  0  0  0  0  0  0  0  0
    2.8510   -0.5116   -0.0979 C   0  0  0  0  0  0  0  0  0  0  0  0
    3.9079    0.3326   -0.4570 C   0  0  0  0  0  0  0  0  0  0  0  0
    5.1938   -0.1135   -0.3693 C   0  0  0  0  0  0  0  0  0  0  0  0
    5.4687   -1.4300   -0.0108 C   0  0  0  0  0  0  0  0  0  0  0  0
    2.1307    2.3499    0.3084 C   0  0  0  0  0  0  0  0  0  0  0  0
    1.8162    3.6890    0.2495 C   0  0  0  0  0  0  0  0  0  0  0  0
    0.5084    4.0936    0.0304 C   0  0  0  0  0  0  0  0  0  0  0  0
   -0.4975    3.1597   -0.0807 C   0  0  0  0  0  0  0  0  0  0  0  0
   -4.9898    0.6571   -0.0764 C   0  0  0  0  0  0  0  0  0  0  0  0
   -5.9555   -0.3004   -0.0507 C   0  0  0  0  0  0  0  0  0  0  0  0
   -5.6403   -1.6573   -0.0116 C   0  0  0  0  0  0  0  0  0  0  0  0
   -4.3515   -2.0912    0.0056 C   0  0  0  0  0  0  0  0  0  0  0  0
    4.6782   -3.3418    0.4591 H   0  0  0  0  0  0  0  0  0  0  0  0
    2.2607   -3.8636    0.1757 H   0  0  0  0  0  0  0  0  0  0  0  0
   -0.0171   -3.1078    0.0640 H   0  0  0  0  0  0  0  0  0  0  0  0
   -1.7165   -2.5928    0.0498 H   0  0  0  0  0  0  0  0  0  0  0  0
   -2.8419    2.2683   -0.1175 H   0  0  0  0  0  0  0  0  0  0  0  0
    3.7185    1.3188   -0.8544 H   0  0  0  0  0  0  0  0  0  0  0  0
    6.0077    0.5642   -0.5763 H   0  0  0  0  0  0  0  0  0  0  0  0
    6.4932   -1.7511    0.1022 H   0  0  0  0  0  0  0  0  0  0  0  0
    3.1406    2.0641    0.5620 H   0  0  0  0  0  0  0  0  0  0  0  0
    2.5950    4.4270    0.3732 H   0  0  0  0  0  0  0  0  0  0  0  0
    0.2779    5.1448   -0.0569 H   0  0  0  0  0  0  0  0  0  0  0  0
   -1.5125    3.4880   -0.2409 H   0  0  0  0  0  0  0  0  0  0  0  0
   -5.2605    1.7031   -0.1096 H   0  0  0  0  0  0  0  0  0  0  0  0
   -6.9938   -0.0008   -0.0582 H   0  0  0  0  0  0  0  0  0  0  0  0
   -6.4404   -2.3826    0.0066 H   0  0  0  0  0  0  0  0  0  0  0  0
   -4.1340   -3.1488    0.0301 H   0  0  0  0  0  0  0  0  0  0  0  0
  1  2  2  0  0  0  0
  2  3  1  0  0  0  0
  3  4  2  0  0  0  0
  4  5  1  0  0  0  0
  5  6  1  0  0  0  0
  6  7  1  0  0  0  0
  7  8  2  0  0  0  0
  8  9  1  0  0  0  0
  9 10  2  0  0  0  0
 10 11  1  0  0  0  0
  6 11  2  0  0  0  0
 11 12  1  0  0  0  0
 12 13  2  0  0  0  0
 13 14  1  0  0  0  0
  5 14  2  0  0  0  0
 14 15  1  0  0  0  0
  2 15  1  0  0  0  0
 15 16  2  0  0  0  0
 16 17  1  0  0  0  0
 17 18  2  0  0  0  0
  1 18  1  0  0  0  0
 13 19  1  0  0  0  0
 19 20  2  0  0  0  0
 20 21  1  0  0  0  0
 21 22  2  0  0  0  0
 12 22  1  0  0  0  0
  9 23  1  0  0  0  0
 23 24  2  0  0  0  0
 24 25  1  0  0  0  0
 25 26  2  0  0  0  0
  8 26  1  0  0  0  0
  1 27  1  0  0  0  0
  3 28  1  0  0  0  0
  4 29  1  0  0  0  0
  7 30  1  0  0  0  0
 10 31  1  0  0  0  0
 16 32  1  0  0  0  0
 17 33  1  0  0  0  0
 18 34  1  0  0  0  0
 19 35  1  0  0  0  0
 20 36  1  0  0  0  0
 21 37  1  0  0  0  0
 22 38  1  0  0  0  0
 23 39  1  0  0  0  0
 24 40  1  0  0  0  0
 25 41  1  0  0  0  0
 26 42  1  0  0  0  0
M  END
$$$$
