C30H14
APtclcactv01171906273D 0   0.00000     0.00000
 
 44 52  0  0  0  0  0  0  0  0999 V2000
   -1.1444   -4.3163   -0.0027 C   0  0  0  0  0  0  0  0  0  0  0  0
   -2.5177   -4.3168   -0.0054 C   0  0  0  0  0  0  0  0  0  0  0  0
   -3.3559   -3.2002   -0.0026 C   0  0  0  0  0  0  0  0  0  0  0  0
   -2.8013   -1.9280    0.0004 C   0  0  0  0  0  0  0  0  0  0  0  0
   -3.1724   -0.4985    0.0002 C   0  0  0  0  0  0  0  0  0  0  0  0
   -4.2313    0.4140   -0.0020 C   0  0  0  0  0  0  0  0  0  0  0  0
   -4.0241    1.7810   -0.0017 C   0  0  0  0  0  0  0  0  0  0  0  0
   -2.7725    2.4081   -0.0028 C   0  0  0  0  0  0  0  0  0  0  0  0
   -2.4517    3.7792   -0.0023 C   0  0  0  0  0  0  0  0  0  0  0  0
   -1.1541    4.2060   -0.0014 C   0  0  0  0  0  0  0  0  0  0  0  0
   -0.0445    3.3324   -0.0001 C   0  0  0  0  0  0  0  0  0  0  0  0
   -0.3175    1.9451    0.0007 C   0  0  0  0  0  0  0  0  0  0  0  0
    0.7427    1.0125    0.0020 C   0  0  0  0  0  0  0  0  0  0  0  0
    2.0867    1.4147    0.0007 C   0  0  0  0  0  0  0  0  0  0  0  0
    3.1131    0.3559    0.0001 C   0  0  0  0  0  0  0  0  0  0  0  0
    2.7897   -1.0279    0.0018 C   0  0  0  0  0  0  0  0  0  0  0  0
    1.3851   -1.4707    0.0043 C   0  0  0  0  0  0  0  0  0  0  0  0
    0.8935   -2.7769    0.0067 C   0  0  0  0  0  0  0  0  0  0  0  0
   -0.4894   -3.0729    0.0011 C   0  0  0  0  0  0  0  0  0  0  0  0
   -1.3927   -2.0039    0.0019 C   0  0  0  0  0  0  0  0  0  0  0  0
   -0.8782   -0.7455    0.0050 C   0  0  0  0  0  0  0  0  0  0  0  0
   -1.9527    0.1860    0.0029 C   0  0  0  0  0  0  0  0  0  0  0  0
   -1.6641    1.5322    0.0001 C   0  0  0  0  0  0  0  0  0  0  0  0
    0.4482   -0.4107    0.0052 C   0  0  0  0  0  0  0  0  0  0  0  0
    3.8172   -1.9709    0.0006 C   0  0  0  0  0  0  0  0  0  0  0  0
    5.1336   -1.5711   -0.0054 C   0  0  0  0  0  0  0  0  0  0  0  0
    5.4539   -0.2210   -0.0058 C   0  0  0  0  0  0  0  0  0  0  0  0
    4.4619    0.7298   -0.0026 C   0  0  0  0  0  0  0  0  0  0  0  0
    2.3274    2.7912    0.0012 C   0  0  0  0  0  0  0  0  0  0  0  0
    1.3054    3.7087    0.0018 C   0  0  0  0  0  0  0  0  0  0  0  0
   -0.5862   -5.2409    0.0011 H   0  0  0  0  0  0  0  0  0  0  0  0
   -3.0003   -5.2829   -0.0107 H   0  0  0  0  0  0  0  0  0  0  0  0
   -4.4286   -3.3257   -0.0031 H   0  0  0  0  0  0  0  0  0  0  0  0
   -5.2442    0.0392   -0.0044 H   0  0  0  0  0  0  0  0  0  0  0  0
   -4.8977    2.4159   -0.0009 H   0  0  0  0  0  0  0  0  0  0  0  0
   -3.2483    4.5085   -0.0030 H   0  0  0  0  0  0  0  0  0  0  0  0
   -0.9665    5.2696   -0.0020 H   0  0  0  0  0  0  0  0  0  0  0  0
    1.5981   -3.5954    0.0109 H   0  0  0  0  0  0  0  0  0  0  0  0
    3.5775   -3.0240    0.0047 H   0  0  0  0  0  0  0  0  0  0  0  0
    5.9205   -2.3108   -0.0094 H   0  0  0  0  0  0  0  0  0  0  0  0
    6.4897    0.0846   -0.0087 H   0  0  0  0  0  0  0  0  0  0  0  0
    4.7259    1.7771   -0.0026 H   0  0  0  0  0  0  0  0  0  0  0  0
    3.3481    3.1443    0.0012 H   0  0  0  0  0  0  0  0  0  0  0  0
    1.5514    4.7603    0.0034 H   0  0  0  0  0  0  0  0  0  0  0  0
  1  2  2  0  0  0  0
  2  3  1  0  0  0  0
  3  4  2  0  0  0  0
  4  5  1  0  0  0  0
  5  6  1  0  0  0  0
  6  7  2  0  0  0  0
  7  8  1  0  0  0  0
  8  9  1  0  0  0  0
  9 10  2  0  0  0  0
 10 11  1  0  0  0  0
 11 12  2  0  0  0  0
 12 13  1  0  0  0  0
 13 14  1  0  0  0  0
 14 15  2  0  0  0  0
 15 16  1  0  0  0  0
 16 17  2  0  0  0  0
 17 18  1  0  0  0  0
 18 19  2  0  0  0  0
  1 19  1  0  0  0  0
 19 20  1  0  0  0  0
  4 20  1  0  0  0  0
 20 21  2  0  0  0  0
 21 22  1  0  0  0  0
  5 22  2  0  0  0  0
 22 23  1  0  0  0  0
 12 23  1  0  0  0  0
  8 23  2  0  0  0  0
 21 24  1  0  0  0  0
 17 24  1  0  0  0  0
 13 24  2  0  0  0  0
 16 25  1  0  0  0  0
 25 26  2  0  0  0  0
 26 27  1  0  0  0  0
 27 28  2  0  0  0  0
 15 28  1  0  0  0  0
 14 29  1  0  0  0  0
 29 30  2  0  0  0  0
 11 30  1  0  0  0  0
  1 31  1  0  0  0  0
  2 32  1  0  0  0  0
  3 33  1  0  0  0  0
  6 34  1  0  0  0  0
  7 35  1  0  0  0  0
  9 36  1  0  0  0  0
 10 37  1  0  0  0  0
 18 38  1  0  0  0  0
 25 39  1  0  0  0  0
 26 40  1  0  0  0  0
 27 41  1  0  0  0  0
 28 42  1  0  0  0  0
 29 43  1  0  0  0  0
 30 44  1  0  0  0  0
M  END
$$$$
