C28H16
APtclcactv01171906253D 0   0.00000     0.00000
 
 44 50  0  0  0  0  0  0  0  0999 V2000
    1.1924   -2.6829    0.5370 C   0  0  0  0  0  0  0  0  0  0  0  0
    1.8902   -3.8482    0.4665 C   0  0  0  0  0  0  0  0  0  0  0  0
    3.2310   -3.8775    0.0876 C   0  0  0  0  0  0  0  0  0  0  0  0
    3.9113   -2.7341   -0.1860 C   0  0  0  0  0  0  0  0  0  0  0  0
    3.2477   -1.4936   -0.0964 C   0  0  0  0  0  0  0  0  0  0  0  0
    1.8023   -1.4773    0.1567 C   0  0  0  0  0  0  0  0  0  0  0  0
    1.0833   -0.2737    0.0196 C   0  0  0  0  0  0  0  0  0  0  0  0
   -0.3841   -0.2402   -0.0672 C   0  0  0  0  0  0  0  0  0  0  0  0
   -1.1350   -1.3790   -0.2589 C   0  0  0  0  0  0  0  0  0  0  0  0
   -2.5435   -1.3578   -0.2006 C   0  0  0  0  0  0  0  0  0  0  0  0
   -3.2374   -0.1367   -0.0363 C   0  0  0  0  0  0  0  0  0  0  0  0
   -2.4757    1.1146    0.0440 C   0  0  0  0  0  0  0  0  0  0  0  0
   -3.1160    2.3511    0.1480 C   0  0  0  0  0  0  0  0  0  0  0  0
   -2.3715    3.5096    0.2097 C   0  0  0  0  0  0  0  0  0  0  0  0
   -0.9879    3.4672    0.1689 C   0  0  0  0  0  0  0  0  0  0  0  0
   -0.3245    2.2500    0.0686 C   0  0  0  0  0  0  0  0  0  0  0  0
    1.1479    2.1886    0.0033 C   0  0  0  0  0  0  0  0  0  0  0  0
    1.8990    3.3525   -0.0123 C   0  0  0  0  0  0  0  0  0  0  0  0
    3.2849    3.3175   -0.0913 C   0  0  0  0  0  0  0  0  0  0  0  0
    3.9660    2.1417   -0.1561 C   0  0  0  0  0  0  0  0  0  0  0  0
    3.2662    0.9180   -0.1273 C   0  0  0  0  0  0  0  0  0  0  0  0
    3.9527   -0.2945   -0.2008 C   0  0  0  0  0  0  0  0  0  0  0  0
    1.8044    0.9350   -0.0374 C   0  0  0  0  0  0  0  0  0  0  0  0
   -1.0686    1.0563    0.0165 C   0  0  0  0  0  0  0  0  0  0  0  0
   -4.6308   -0.1408    0.0495 C   0  0  0  0  0  0  0  0  0  0  0  0
   -5.3139   -1.3210   -0.0309 C   0  0  0  0  0  0  0  0  0  0  0  0
   -4.6373   -2.5229   -0.2035 C   0  0  0  0  0  0  0  0  0  0  0  0
   -3.2770   -2.5533   -0.2918 C   0  0  0  0  0  0  0  0  0  0  0  0
    0.1903   -2.6923    0.9344 H   0  0  0  0  0  0  0  0  0  0  0  0
    1.3901   -4.7749    0.7063 H   0  0  0  0  0  0  0  0  0  0  0  0
    3.7387   -4.8284    0.0086 H   0  0  0  0  0  0  0  0  0  0  0  0
    4.9518   -2.7763   -0.4724 H   0  0  0  0  0  0  0  0  0  0  0  0
   -0.6497   -2.3095   -0.5128 H   0  0  0  0  0  0  0  0  0  0  0  0
   -4.1932    2.4029    0.1784 H   0  0  0  0  0  0  0  0  0  0  0  0
   -2.8737    4.4608    0.2884 H   0  0  0  0  0  0  0  0  0  0  0  0
   -0.4272    4.3892    0.2143 H   0  0  0  0  0  0  0  0  0  0  0  0
    1.4025    4.3104    0.0382 H   0  0  0  0  0  0  0  0  0  0  0  0
    3.8348    4.2469   -0.0997 H   0  0  0  0  0  0  0  0  0  0  0  0
    5.0430    2.1464   -0.2275 H   0  0  0  0  0  0  0  0  0  0  0  0
    5.0235   -0.3039   -0.3371 H   0  0  0  0  0  0  0  0  0  0  0  0
   -5.1719    0.7848    0.1823 H   0  0  0  0  0  0  0  0  0  0  0  0
   -6.3924   -1.3192    0.0414 H   0  0  0  0  0  0  0  0  0  0  0  0
   -5.1962   -3.4440   -0.2660 H   0  0  0  0  0  0  0  0  0  0  0  0
   -2.7665   -3.4941   -0.4286 H   0  0  0  0  0  0  0  0  0  0  0  0
  1  2  2  0  0  0  0
  2  3  1  0  0  0  0
  3  4  2  0  0  0  0
  4  5  1  0  0  0  0
  5  6  1  0  0  0  0
  1  6  1  0  0  0  0
  6  7  2  0  0  0  0
  7  8  1  0  0  0  0
  8  9  1  0  0  0  0
  9 10  2  0  0  0  0
 10 11  1  0  0  0  0
 11 12  2  0  0  0  0
 12 13  1  0  0  0  0
 13 14  2  0  0  0  0
 14 15  1  0  0  0  0
 15 16  2  0  0  0  0
 16 17  1  0  0  0  0
 17 18  1  0  0  0  0
 18 19  2  0  0  0  0
 19 20  1  0  0  0  0
 20 21  2  0  0  0  0
 21 22  1  0  0  0  0
  5 22  2  0  0  0  0
 21 23  1  0  0  0  0
 17 23  2  0  0  0  0
  7 23  1  0  0  0  0
 16 24  1  0  0  0  0
 12 24  1  0  0  0  0
  8 24  2  0  0  0  0
 11 25  1  0  0  0  0
 25 26  2  0  0  0  0
 26 27  1  0  0  0  0
 27 28  2  0  0  0  0
 10 28  1  0  0  0  0
  1 29  1  0  0  0  0
  2 30  1  0  0  0  0
  3 31  1  0  0  0  0
  4 32  1  0  0  0  0
  9 33  1  0  0  0  0
 13 34  1  0  0  0  0
 14 35  1  0  0  0  0
 15 36  1  0  0  0  0
 18 37  1  0  0  0  0
 19 38  1  0  0  0  0
 20 39  1  0  0  0  0
 22 40  1  0  0  0  0
 25 41  1  0  0  0  0
 26 42  1  0  0  0  0
 27 43  1  0  0  0  0
 28 44  1  0  0  0  0
M  END
$$$$
