C28H16
APtclcactv01171906253D 0   0.00000     0.00000
 
 44 50  0  0  0  0  0  0  0  0999 V2000
   -1.1687   -4.1722   -0.3750 C   0  0  0  0  0  0  0  0  0  0  0  0
   -2.2963   -3.4735   -0.6970 C   0  0  0  0  0  0  0  0  0  0  0  0
   -2.3259   -2.0861   -0.6323 C   0  0  0  0  0  0  0  0  0  0  0  0
   -1.2065   -1.3670   -0.2353 C   0  0  0  0  0  0  0  0  0  0  0  0
   -1.2246    0.0885   -0.0444 C   0  0  0  0  0  0  0  0  0  0  0  0
   -2.4256    0.8054    0.1008 C   0  0  0  0  0  0  0  0  0  0  0  0
   -2.4167    2.2706    0.0211 C   0  0  0  0  0  0  0  0  0  0  0  0
   -1.2093    2.9634   -0.0162 C   0  0  0  0  0  0  0  0  0  0  0  0
    0.0013    2.2579    0.0024 C   0  0  0  0  0  0  0  0  0  0  0  0
    1.2134    2.9612    0.0223 C   0  0  0  0  0  0  0  0  0  0  0  0
    2.4203    2.2687   -0.0225 C   0  0  0  0  0  0  0  0  0  0  0  0
    2.4259    0.8040   -0.1110 C   0  0  0  0  0  0  0  0  0  0  0  0
    1.2252    0.0869    0.0329 C   0  0  0  0  0  0  0  0  0  0  0  0
    1.2046   -1.3687    0.2227 C   0  0  0  0  0  0  0  0  0  0  0  0
    2.3219   -2.0852    0.6287 C   0  0  0  0  0  0  0  0  0  0  0  0
    2.2909   -3.4717    0.7015 C   0  0  0  0  0  0  0  0  0  0  0  0
    1.1633   -4.1713    0.3841 C   0  0  0  0  0  0  0  0  0  0  0  0
   -0.0033   -3.4832    0.0062 C   0  0  0  0  0  0  0  0  0  0  0  0
   -0.0027   -2.0725    0.0007 C   0  0  0  0  0  0  0  0  0  0  0  0
    0.0004    0.7906    0.0040 C   0  0  0  0  0  0  0  0  0  0  0  0
    3.6492    0.1655   -0.3781 C   0  0  0  0  0  0  0  0  0  0  0  0
    4.8059    0.8812   -0.3624 C   0  0  0  0  0  0  0  0  0  0  0  0
    4.8108    2.2570   -0.1385 C   0  0  0  0  0  0  0  0  0  0  0  0
    3.6555    2.9509    0.0295 C   0  0  0  0  0  0  0  0  0  0  0  0
   -3.6495    2.9580   -0.0208 C   0  0  0  0  0  0  0  0  0  0  0  0
   -4.8071    2.2652    0.1414 C   0  0  0  0  0  0  0  0  0  0  0  0
   -4.8040    0.8881    0.3583 C   0  0  0  0  0  0  0  0  0  0  0  0
   -3.6491    0.1698    0.3725 C   0  0  0  0  0  0  0  0  0  0  0  0
   -1.1704   -5.2506   -0.4077 H   0  0  0  0  0  0  0  0  0  0  0  0
   -3.1845   -4.0059   -1.0029 H   0  0  0  0  0  0  0  0  0  0  0  0
   -3.2263   -1.5705   -0.9314 H   0  0  0  0  0  0  0  0  0  0  0  0
   -1.2048    4.0422   -0.0601 H   0  0  0  0  0  0  0  0  0  0  0  0
    1.2105    4.0396    0.0755 H   0  0  0  0  0  0  0  0  0  0  0  0
    3.2210   -1.5673    0.9310 H   0  0  0  0  0  0  0  0  0  0  0  0
    3.1786   -4.0027    1.0127 H   0  0  0  0  0  0  0  0  0  0  0  0
    1.1655   -5.2502    0.4222 H   0  0  0  0  0  0  0  0  0  0  0  0
    3.6807   -0.8829   -0.6336 H   0  0  0  0  0  0  0  0  0  0  0  0
    5.7429    0.3701   -0.5264 H   0  0  0  0  0  0  0  0  0  0  0  0
    5.7536    2.7809   -0.0960 H   0  0  0  0  0  0  0  0  0  0  0  0
    3.6823    4.0173    0.1992 H   0  0  0  0  0  0  0  0  0  0  0  0
   -3.6727    4.0251   -0.1824 H   0  0  0  0  0  0  0  0  0  0  0  0
   -5.7483    2.7910    0.0999 H   0  0  0  0  0  0  0  0  0  0  0  0
   -5.7419    0.3773    0.5178 H   0  0  0  0  0  0  0  0  0  0  0  0
   -3.6805   -0.8783    0.6308 H   0  0  0  0  0  0  0  0  0  0  0  0
  1  2  2  0  0  0  0
  2  3  1  0  0  0  0
  3  4  2  0  0  0  0
  4  5  1  0  0  0  0
  5  6  1  0  0  0  0
  6  7  2  0  0  0  0
  7  8  1  0  0  0  0
  8  9  2  0  0  0  0
  9 10  1  0  0  0  0
 10 11  2  0  0  0  0
 11 12  1  0  0  0  0
 12 13  2  0  0  0  0
 13 14  1  0  0  0  0
 14 15  1  0  0  0  0
 15 16  2  0  0  0  0
 16 17  1  0  0  0  0
 17 18  2  0  0  0  0
  1 18  1  0  0  0  0
 18 19  1  0  0  0  0
  4 19  1  0  0  0  0
 14 19  2  0  0  0  0
 13 20  1  0  0  0  0
  9 20  1  0  0  0  0
  5 20  2  0  0  0  0
 12 21  1  0  0  0  0
 21 22  2  0  0  0  0
 22 23  1  0  0  0  0
 23 24  2  0  0  0  0
 11 24  1  0  0  0  0
  7 25  1  0  0  0  0
 25 26  2  0  0  0  0
 26 27  1  0  0  0  0
 27 28  2  0  0  0  0
  6 28  1  0  0  0  0
  1 29  1  0  0  0  0
  2 30  1  0  0  0  0
  3 31  1  0  0  0  0
  8 32  1  0  0  0  0
 10 33  1  0  0  0  0
 15 34  1  0  0  0  0
 16 35  1  0  0  0  0
 17 36  1  0  0  0  0
 21 37  1  0  0  0  0
 22 38  1  0  0  0  0
 23 39  1  0  0  0  0
 24 40  1  0  0  0  0
 25 41  1  0  0  0  0
 26 42  1  0  0  0  0
 27 43  1  0  0  0  0
 28 44  1  0  0  0  0
M  END
$$$$
