C30H14
APtclcactv01171906263D 0   0.00000     0.00000
 
 44 52  0  0  0  0  0  0  0  0999 V2000
   -2.8179    2.4595    0.0010 C   0  0  0  0  0  0  0  0  0  0  0  0
   -3.5107    1.2317    0.0005 C   0  0  0  0  0  0  0  0  0  0  0  0
   -2.8093   -0.0001   -0.0005 C   0  0  0  0  0  0  0  0  0  0  0  0
   -3.5113   -1.2316   -0.0001 C   0  0  0  0  0  0  0  0  0  0  0  0
   -2.8185   -2.4595   -0.0003 C   0  0  0  0  0  0  0  0  0  0  0  0
   -1.4323   -2.4907   -0.0008 C   0  0  0  0  0  0  0  0  0  0  0  0
   -0.6758   -3.7415    0.0000 C   0  0  0  0  0  0  0  0  0  0  0  0
    0.6759   -3.7415    0.0004 C   0  0  0  0  0  0  0  0  0  0  0  0
    1.4323   -2.4906   -0.0003 C   0  0  0  0  0  0  0  0  0  0  0  0
    2.8185   -2.4594    0.0006 C   0  0  0  0  0  0  0  0  0  0  0  0
    3.5112   -1.2316    0.0002 C   0  0  0  0  0  0  0  0  0  0  0  0
    2.8093   -0.0000   -0.0006 C   0  0  0  0  0  0  0  0  0  0  0  0
    3.5107    1.2317   -0.0000 C   0  0  0  0  0  0  0  0  0  0  0  0
    2.8179    2.4595    0.0000 C   0  0  0  0  0  0  0  0  0  0  0  0
    1.4318    2.4899   -0.0004 C   0  0  0  0  0  0  0  0  0  0  0  0
    0.6758    3.7411   -0.0004 C   0  0  0  0  0  0  0  0  0  0  0  0
   -0.6758    3.7411   -0.0009 C   0  0  0  0  0  0  0  0  0  0  0  0
   -1.4318    2.4900    0.0001 C   0  0  0  0  0  0  0  0  0  0  0  0
   -0.6996    1.2213    0.0014 C   0  0  0  0  0  0  0  0  0  0  0  0
    0.6996    1.2213   -0.0015 C   0  0  0  0  0  0  0  0  0  0  0  0
    1.4053   -0.0004   -0.0015 C   0  0  0  0  0  0  0  0  0  0  0  0
    0.6996   -1.2222   -0.0017 C   0  0  0  0  0  0  0  0  0  0  0  0
   -0.6996   -1.2222   -0.0016 C   0  0  0  0  0  0  0  0  0  0  0  0
   -1.4054   -0.0004   -0.0015 C   0  0  0  0  0  0  0  0  0  0  0  0
    4.9150    1.2057    0.0010 C   0  0  0  0  0  0  0  0  0  0  0  0
    5.5879    0.0008    0.0014 C   0  0  0  0  0  0  0  0  0  0  0  0
    4.9155   -1.2045    0.0012 C   0  0  0  0  0  0  0  0  0  0  0  0
   -4.9156   -1.2044    0.0009 C   0  0  0  0  0  0  0  0  0  0  0  0
   -5.5878    0.0008    0.0010 C   0  0  0  0  0  0  0  0  0  0  0  0
   -4.9150    1.2057    0.0015 C   0  0  0  0  0  0  0  0  0  0  0  0
   -3.3728    3.3861   -0.0024 H   0  0  0  0  0  0  0  0  0  0  0  0
   -3.3736   -3.3859    0.0004 H   0  0  0  0  0  0  0  0  0  0  0  0
   -1.2063   -4.6823    0.0006 H   0  0  0  0  0  0  0  0  0  0  0  0
    1.2064   -4.6822    0.0017 H   0  0  0  0  0  0  0  0  0  0  0  0
    3.3736   -3.3859    0.0019 H   0  0  0  0  0  0  0  0  0  0  0  0
    3.3728    3.3861    0.0008 H   0  0  0  0  0  0  0  0  0  0  0  0
    1.2065    4.6818    0.0003 H   0  0  0  0  0  0  0  0  0  0  0  0
   -1.2064    4.6817   -0.0005 H   0  0  0  0  0  0  0  0  0  0  0  0
    5.4703    2.1320    0.0011 H   0  0  0  0  0  0  0  0  0  0  0  0
    6.6679    0.0010    0.0018 H   0  0  0  0  0  0  0  0  0  0  0  0
    5.4714   -2.1304    0.0015 H   0  0  0  0  0  0  0  0  0  0  0  0
   -5.4715   -2.1303    0.0012 H   0  0  0  0  0  0  0  0  0  0  0  0
   -6.6678    0.0010    0.0014 H   0  0  0  0  0  0  0  0  0  0  0  0
   -5.4704    2.1320    0.0019 H   0  0  0  0  0  0  0  0  0  0  0  0
  1  2  2  0  0  0  0
  2  3  1  0  0  0  0
  3  4  1  0  0  0  0
  4  5  1  0  0  0  0
  5  6  2  0  0  0  0
  6  7  1  0  0  0  0
  7  8  2  0  0  0  0
  8  9  1  0  0  0  0
  9 10  2  0  0  0  0
 10 11  1  0  0  0  0
 11 12  1  0  0  0  0
 12 13  1  0  0  0  0
 13 14  2  0  0  0  0
 14 15  1  0  0  0  0
 15 16  2  0  0  0  0
 16 17  1  0  0  0  0
 17 18  2  0  0  0  0
  1 18  1  0  0  0  0
 18 19  1  0  0  0  0
 19 20  2  0  0  0  0
 15 20  1  0  0  0  0
 20 21  1  0  0  0  0
 12 21  2  0  0  0  0
 21 22  1  0  0  0  0
  9 22  1  0  0  0  0
 22 23  2  0  0  0  0
  6 23  1  0  0  0  0
 23 24  1  0  0  0  0
  3 24  2  0  0  0  0
 19 24  1  0  0  0  0
 13 25  1  0  0  0  0
 25 26  2  0  0  0  0
 26 27  1  0  0  0  0
 11 27  2  0  0  0  0
  4 28  2  0  0  0  0
 28 29  1  0  0  0  0
 29 30  2  0  0  0  0
  2 30  1  0  0  0  0
  1 31  1  0  0  0  0
  5 32  1  0  0  0  0
  7 33  1  0  0  0  0
  8 34  1  0  0  0  0
 10 35  1  0  0  0  0
 14 36  1  0  0  0  0
 16 37  1  0  0  0  0
 17 38  1  0  0  0  0
 25 39  1  0  0  0  0
 26 40  1  0  0  0  0
 27 41  1  0  0  0  0
 28 42  1  0  0  0  0
 29 43  1  0  0  0  0
 30 44  1  0  0  0  0
M  END
$$$$
