C24H14
APtclcactv01171906263D 0   0.00000     0.00000
 
 38 43  0  0  0  0  0  0  0  0999 V2000
    1.2019   -2.8325    0.0004 C   0  0  0  0  0  0  0  0  0  0  0  0
    0.0005   -3.5144    0.0012 C   0  0  0  0  0  0  0  0  0  0  0  0
   -1.2010   -2.8329    0.0020 C   0  0  0  0  0  0  0  0  0  0  0  0
   -1.2176   -1.4398    0.0014 C   0  0  0  0  0  0  0  0  0  0  0  0
    0.0000   -0.7311    0.0004 C   0  0  0  0  0  0  0  0  0  0  0  0
    1.2178   -1.4394    0.0002 C   0  0  0  0  0  0  0  0  0  0  0  0
    2.4936   -0.7033   -0.0001 C   0  0  0  0  0  0  0  0  0  0  0  0
    3.7074   -1.3927   -0.0006 C   0  0  0  0  0  0  0  0  0  0  0  0
    4.8939   -0.6936   -0.0013 C   0  0  0  0  0  0  0  0  0  0  0  0
    4.8939    0.6937   -0.0012 C   0  0  0  0  0  0  0  0  0  0  0  0
    3.7076    1.3930   -0.0008 C   0  0  0  0  0  0  0  0  0  0  0  0
    2.4935    0.7039   -0.0005 C   0  0  0  0  0  0  0  0  0  0  0  0
    1.2176    1.4398    0.0004 C   0  0  0  0  0  0  0  0  0  0  0  0
   -0.0000    0.7311   -0.0009 C   0  0  0  0  0  0  0  0  0  0  0  0
   -1.2178    1.4394   -0.0002 C   0  0  0  0  0  0  0  0  0  0  0  0
   -2.4936    0.7033   -0.0009 C   0  0  0  0  0  0  0  0  0  0  0  0
   -3.7074    1.3927   -0.0003 C   0  0  0  0  0  0  0  0  0  0  0  0
   -4.8939    0.6936   -0.0012 C   0  0  0  0  0  0  0  0  0  0  0  0
   -4.8939   -0.6937   -0.0023 C   0  0  0  0  0  0  0  0  0  0  0  0
   -3.7076   -1.3930   -0.0024 C   0  0  0  0  0  0  0  0  0  0  0  0
   -2.4935   -0.7039    0.0024 C   0  0  0  0  0  0  0  0  0  0  0  0
   -1.2018    2.8325    0.0015 C   0  0  0  0  0  0  0  0  0  0  0  0
   -0.0005    3.5144    0.0026 C   0  0  0  0  0  0  0  0  0  0  0  0
    1.2011    2.8329   -0.0002 C   0  0  0  0  0  0  0  0  0  0  0  0
    2.1321   -3.3812    0.0043 H   0  0  0  0  0  0  0  0  0  0  0  0
    0.0007   -4.5944    0.0009 H   0  0  0  0  0  0  0  0  0  0  0  0
   -2.1310   -3.3820    0.0027 H   0  0  0  0  0  0  0  0  0  0  0  0
    3.7160   -2.4726    0.0000 H   0  0  0  0  0  0  0  0  0  0  0  0
    5.8316   -1.2295   -0.0016 H   0  0  0  0  0  0  0  0  0  0  0  0
    5.8317    1.2295   -0.0011 H   0  0  0  0  0  0  0  0  0  0  0  0
    3.7164    2.4730   -0.0004 H   0  0  0  0  0  0  0  0  0  0  0  0
   -3.7161    2.4726    0.0012 H   0  0  0  0  0  0  0  0  0  0  0  0
   -5.8316    1.2294   -0.0007 H   0  0  0  0  0  0  0  0  0  0  0  0
   -5.8317   -1.2295   -0.0026 H   0  0  0  0  0  0  0  0  0  0  0  0
   -3.7164   -2.4730   -0.0025 H   0  0  0  0  0  0  0  0  0  0  0  0
   -2.1320    3.3813    0.0015 H   0  0  0  0  0  0  0  0  0  0  0  0
   -0.0007    4.5944    0.0035 H   0  0  0  0  0  0  0  0  0  0  0  0
    2.1311    3.3819    0.0009 H   0  0  0  0  0  0  0  0  0  0  0  0
  1  2  2  0  0  0  0
  2  3  1  0  0  0  0
  3  4  2  0  0  0  0
  4  5  1  0  0  0  0
  5  6  2  0  0  0  0
  1  6  1  0  0  0  0
  6  7  1  0  0  0  0
  7  8  2  0  0  0  0
  8  9  1  0  0  0  0
  9 10  2  0  0  0  0
 10 11  1  0  0  0  0
 11 12  2  0  0  0  0
  7 12  1  0  0  0  0
 12 13  1  0  0  0  0
 13 14  1  0  0  0  0
  5 14  1  0  0  0  0
 14 15  2  0  0  0  0
 15 16  1  0  0  0  0
 16 17  1  0  0  0  0
 17 18  2  0  0  0  0
 18 19  1  0  0  0  0
 19 20  2  0  0  0  0
 20 21  1  0  0  0  0
  4 21  1  0  0  0  0
 16 21  2  0  0  0  0
 15 22  1  0  0  0  0
 22 23  2  0  0  0  0
 23 24  1  0  0  0  0
 13 24  2  0  0  0  0
  1 25  1  0  0  0  0
  2 26  1  0  0  0  0
  3 27  1  0  0  0  0
  8 28  1  0  0  0  0
  9 29  1  0  0  0  0
 10 30  1  0  0  0  0
 11 31  1  0  0  0  0
 17 32  1  0  0  0  0
 18 33  1  0  0  0  0
 19 34  1  0  0  0  0
 20 35  1  0  0  0  0
 22 36  1  0  0  0  0
 23 37  1  0  0  0  0
 24 38  1  0  0  0  0
M  END
$$$$
