C34H18
APtclcactv01171906273D 0   0.00000     0.00000
 
 52 60  0  0  0  0  0  0  0  0999 V2000
   -1.4206   -4.7102    0.0011 C   0  0  0  0  0  0  0  0  0  0  0  0
   -0.7315   -5.8896   -0.0001 C   0  0  0  0  0  0  0  0  0  0  0  0
    0.6571   -5.8986   -0.0014 C   0  0  0  0  0  0  0  0  0  0  0  0
    1.3631   -4.7292   -0.0012 C   0  0  0  0  0  0  0  0  0  0  0  0
    0.6848   -3.5065    0.0000 C   0  0  0  0  0  0  0  0  0  0  0  0
    1.4289   -2.2390   -0.0001 C   0  0  0  0  0  0  0  0  0  0  0  0
    0.7270   -1.0205    0.0006 C   0  0  0  0  0  0  0  0  0  0  0  0
    1.4484    0.1914    0.0004 C   0  0  0  0  0  0  0  0  0  0  0  0
    2.8562    0.1634   -0.0004 C   0  0  0  0  0  0  0  0  0  0  0  0
    3.5869    1.4337   -0.0005 C   0  0  0  0  0  0  0  0  0  0  0  0
    4.9849    1.4575   -0.0008 C   0  0  0  0  0  0  0  0  0  0  0  0
    5.6440    2.6526   -0.0005 C   0  0  0  0  0  0  0  0  0  0  0  0
    4.9414    3.8530    0.0002 C   0  0  0  0  0  0  0  0  0  0  0  0
    3.5790    3.8655    0.0005 C   0  0  0  0  0  0  0  0  0  0  0  0
    2.8681    2.6522    0.0002 C   0  0  0  0  0  0  0  0  0  0  0  0
    1.4593    2.6544    0.0009 C   0  0  0  0  0  0  0  0  0  0  0  0
    0.7481    1.4765    0.0006 C   0  0  0  0  0  0  0  0  0  0  0  0
   -0.7299    1.4849    0.0009 C   0  0  0  0  0  0  0  0  0  0  0  0
   -1.4286    2.6703    0.0010 C   0  0  0  0  0  0  0  0  0  0  0  0
   -2.8375    2.6829    0.0002 C   0  0  0  0  0  0  0  0  0  0  0  0
   -3.5366    3.9031    0.0002 C   0  0  0  0  0  0  0  0  0  0  0  0
   -4.8990    3.9038   -0.0010 C   0  0  0  0  0  0  0  0  0  0  0  0
   -5.6140    2.7107   -0.0017 C   0  0  0  0  0  0  0  0  0  0  0  0
   -4.9668    1.5092   -0.0013 C   0  0  0  0  0  0  0  0  0  0  0  0
   -3.5691    1.4722   -0.0010 C   0  0  0  0  0  0  0  0  0  0  0  0
   -2.8519    0.1943   -0.0010 C   0  0  0  0  0  0  0  0  0  0  0  0
   -1.4441    0.2076    0.0001 C   0  0  0  0  0  0  0  0  0  0  0  0
   -0.7360   -1.0120    0.0019 C   0  0  0  0  0  0  0  0  0  0  0  0
   -1.4526   -2.2214    0.0026 C   0  0  0  0  0  0  0  0  0  0  0  0
   -0.7241   -3.4979    0.0009 C   0  0  0  0  0  0  0  0  0  0  0  0
   -2.8555   -2.2042    0.0015 C   0  0  0  0  0  0  0  0  0  0  0  0
   -3.5391   -1.0276   -0.0003 C   0  0  0  0  0  0  0  0  0  0  0  0
    3.5285   -1.0668   -0.0007 C   0  0  0  0  0  0  0  0  0  0  0  0
    2.8318   -2.2360   -0.0015 C   0  0  0  0  0  0  0  0  0  0  0  0
   -2.5006   -4.7142   -0.0024 H   0  0  0  0  0  0  0  0  0  0  0  0
   -1.2721   -6.8245    0.0004 H   0  0  0  0  0  0  0  0  0  0  0  0
    1.1849   -6.8408   -0.0024 H   0  0  0  0  0  0  0  0  0  0  0  0
    2.4429   -4.7489   -0.0015 H   0  0  0  0  0  0  0  0  0  0  0  0
    5.5419    0.5322   -0.0010 H   0  0  0  0  0  0  0  0  0  0  0  0
    6.7239    2.6664   -0.0004 H   0  0  0  0  0  0  0  0  0  0  0  0
    5.4829    4.7874    0.0009 H   0  0  0  0  0  0  0  0  0  0  0  0
    3.0464    4.8050    0.0007 H   0  0  0  0  0  0  0  0  0  0  0  0
    0.9292    3.5953    0.0022 H   0  0  0  0  0  0  0  0  0  0  0  0
   -0.8887    3.6056    0.0020 H   0  0  0  0  0  0  0  0  0  0  0  0
   -2.9948    4.8373    0.0015 H   0  0  0  0  0  0  0  0  0  0  0  0
   -5.4311    4.8436   -0.0010 H   0  0  0  0  0  0  0  0  0  0  0  0
   -6.6937    2.7355   -0.0023 H   0  0  0  0  0  0  0  0  0  0  0  0
   -5.5328    0.5893   -0.0011 H   0  0  0  0  0  0  0  0  0  0  0  0
   -3.3999   -3.1370    0.0021 H   0  0  0  0  0  0  0  0  0  0  0  0
   -4.6191   -1.0352   -0.0007 H   0  0  0  0  0  0  0  0  0  0  0  0
    4.6083   -1.0869   -0.0014 H   0  0  0  0  0  0  0  0  0  0  0  0
    3.3664   -3.1744   -0.0012 H   0  0  0  0  0  0  0  0  0  0  0  0
  1  2  2  0  0  0  0
  2  3  1  0  0  0  0
  3  4  2  0  0  0  0
  4  5  1  0  0  0  0
  5  6  2  0  0  0  0
  6  7  1  0  0  0  0
  7  8  1  0  0  0  0
  8  9  2  0  0  0  0
  9 10  1  0  0  0  0
 10 11  1  0  0  0  0
 11 12  2  0  0  0  0
 12 13  1  0  0  0  0
 13 14  2  0  0  0  0
 14 15  1  0  0  0  0
 10 15  2  0  0  0  0
 15 16  1  0  0  0  0
 16 17  2  0  0  0  0
  8 17  1  0  0  0  0
 17 18  1  0  0  0  0
 18 19  1  0  0  0  0
 19 20  2  0  0  0  0
 20 21  1  0  0  0  0
 21 22  2  0  0  0  0
 22 23  1  0  0  0  0
 23 24  2  0  0  0  0
 24 25  1  0  0  0  0
 20 25  1  0  0  0  0
 25 26  2  0  0  0  0
 26 27  1  0  0  0  0
 18 27  2  0  0  0  0
 27 28  1  0  0  0  0
  7 28  2  0  0  0  0
 28 29  1  0  0  0  0
 29 30  2  0  0  0  0
  1 30  1  0  0  0  0
  5 30  1  0  0  0  0
 29 31  1  0  0  0  0
 31 32  2  0  0  0  0
 26 32  1  0  0  0  0
  9 33  1  0  0  0  0
 33 34  2  0  0  0  0
  6 34  1  0  0  0  0
  1 35  1  0  0  0  0
  2 36  1  0  0  0  0
  3 37  1  0  0  0  0
  4 38  1  0  0  0  0
 11 39  1  0  0  0  0
 12 40  1  0  0  0  0
 13 41  1  0  0  0  0
 14 42  1  0  0  0  0
 16 43  1  0  0  0  0
 19 44  1  0  0  0  0
 21 45  1  0  0  0  0
 22 46  1  0  0  0  0
 23 47  1  0  0  0  0
 24 48  1  0  0  0  0
 31 49  1  0  0  0  0
 32 50  1  0  0  0  0
 33 51  1  0  0  0  0
 34 52  1  0  0  0  0
M  END
$$$$
