C30H18
APtclcactv01171906253D 0   0.00000     0.00000
 
 48 54  0  0  0  0  0  0  0  0999 V2000
   -4.6016   -2.3163   -0.2246 C   0  0  0  0  0  0  0  0  0  0  0  0
   -5.9635   -2.3870   -0.2945 C   0  0  0  0  0  0  0  0  0  0  0  0
   -6.7447   -1.2452   -0.1554 C   0  0  0  0  0  0  0  0  0  0  0  0
   -6.1695   -0.0291    0.0719 C   0  0  0  0  0  0  0  0  0  0  0  0
   -4.7762    0.0717    0.1767 C   0  0  0  0  0  0  0  0  0  0  0  0
   -4.1512    1.3014    0.4809 C   0  0  0  0  0  0  0  0  0  0  0  0
   -2.8054    1.4124    0.5231 C   0  0  0  0  0  0  0  0  0  0  0  0
   -1.9576    0.3335    0.2094 C   0  0  0  0  0  0  0  0  0  0  0  0
   -0.5602    0.4885    0.0513 C   0  0  0  0  0  0  0  0  0  0  0  0
    0.0663    1.8093   -0.0859 C   0  0  0  0  0  0  0  0  0  0  0  0
    1.4684    1.9370   -0.0078 C   0  0  0  0  0  0  0  0  0  0  0  0
    2.3199    0.7333    0.0199 C   0  0  0  0  0  0  0  0  0  0  0  0
    3.6984    0.8684    0.0655 C   0  0  0  0  0  0  0  0  0  0  0  0
    4.5111   -0.2704    0.0532 C   0  0  0  0  0  0  0  0  0  0  0  0
    3.8889   -1.5943   -0.0080 C   0  0  0  0  0  0  0  0  0  0  0  0
    2.4943   -1.6959   -0.0325 C   0  0  0  0  0  0  0  0  0  0  0  0
    1.7149   -0.5481   -0.0068 C   0  0  0  0  0  0  0  0  0  0  0  0
    0.2445   -0.6622    0.0110 C   0  0  0  0  0  0  0  0  0  0  0  0
   -0.3450   -1.9347   -0.0402 C   0  0  0  0  0  0  0  0  0  0  0  0
   -1.6970   -2.0785   -0.0357 C   0  0  0  0  0  0  0  0  0  0  0  0
   -2.5240   -0.9546    0.0582 C   0  0  0  0  0  0  0  0  0  0  0  0
   -3.9810   -1.0834   -0.0056 C   0  0  0  0  0  0  0  0  0  0  0  0
    4.7156   -2.7325   -0.0429 C   0  0  0  0  0  0  0  0  0  0  0  0
    6.0668   -2.5797   -0.0111 C   0  0  0  0  0  0  0  0  0  0  0  0
    6.6573   -1.3198    0.0579 C   0  0  0  0  0  0  0  0  0  0  0  0
    5.9150   -0.1813    0.0941 C   0  0  0  0  0  0  0  0  0  0  0  0
    2.0526    3.2042    0.0096 C   0  0  0  0  0  0  0  0  0  0  0  0
    1.2712    4.3260   -0.1578 C   0  0  0  0  0  0  0  0  0  0  0  0
   -0.0925    4.1963   -0.3708 C   0  0  0  0  0  0  0  0  0  0  0  0
   -0.6869    2.9544   -0.3609 C   0  0  0  0  0  0  0  0  0  0  0  0
   -4.0107   -3.2134   -0.3345 H   0  0  0  0  0  0  0  0  0  0  0  0
   -6.4404   -3.3418   -0.4584 H   0  0  0  0  0  0  0  0  0  0  0  0
   -7.8196   -1.3213   -0.2297 H   0  0  0  0  0  0  0  0  0  0  0  0
   -6.7865    0.8512    0.1688 H   0  0  0  0  0  0  0  0  0  0  0  0
   -4.7602    2.1711    0.6803 H   0  0  0  0  0  0  0  0  0  0  0  0
   -2.3841    2.3469    0.8587 H   0  0  0  0  0  0  0  0  0  0  0  0
    4.1543    1.8447    0.1125 H   0  0  0  0  0  0  0  0  0  0  0  0
    2.0331   -2.6707   -0.0755 H   0  0  0  0  0  0  0  0  0  0  0  0
    0.2744   -2.8172   -0.0820 H   0  0  0  0  0  0  0  0  0  0  0  0
   -2.1279   -3.0647   -0.1079 H   0  0  0  0  0  0  0  0  0  0  0  0
    4.2809   -3.7195   -0.0929 H   0  0  0  0  0  0  0  0  0  0  0  0
    6.6966   -3.4572   -0.0408 H   0  0  0  0  0  0  0  0  0  0  0  0
    7.7340   -1.2459    0.0805 H   0  0  0  0  0  0  0  0  0  0  0  0
    6.3984    0.7834    0.1498 H   0  0  0  0  0  0  0  0  0  0  0  0
    3.1160    3.3146    0.1581 H   0  0  0  0  0  0  0  0  0  0  0  0
    1.7206    5.3057   -0.1183 H   0  0  0  0  0  0  0  0  0  0  0  0
   -0.6949    5.0758   -0.5449 H   0  0  0  0  0  0  0  0  0  0  0  0
   -1.7295    2.8772   -0.6255 H   0  0  0  0  0  0  0  0  0  0  0  0
  1  2  2  0  0  0  0
  2  3  1  0  0  0  0
  3  4  2  0  0  0  0
  4  5  1  0  0  0  0
  5  6  1  0  0  0  0
  6  7  2  0  0  0  0
  7  8  1  0  0  0  0
  8  9  1  0  0  0  0
  9 10  2  0  0  0  0
 10 11  1  0  0  0  0
 11 12  2  0  0  0  0
 12 13  1  0  0  0  0
 13 14  2  0  0  0  0
 14 15  1  0  0  0  0
 15 16  2  0  0  0  0
 16 17  1  0  0  0  0
 12 17  1  0  0  0  0
 17 18  2  0  0  0  0
  9 18  1  0  0  0  0
 18 19  1  0  0  0  0
 19 20  2  0  0  0  0
 20 21  1  0  0  0  0
  8 21  2  0  0  0  0
 21 22  1  0  0  0  0
  1 22  1  0  0  0  0
  5 22  2  0  0  0  0
 15 23  1  0  0  0  0
 23 24  2  0  0  0  0
 24 25  1  0  0  0  0
 25 26  2  0  0  0  0
 14 26  1  0  0  0  0
 11 27  1  0  0  0  0
 27 28  2  0  0  0  0
 28 29  1  0  0  0  0
 29 30  2  0  0  0  0
 10 30  1  0  0  0  0
  1 31  1  0  0  0  0
  2 32  1  0  0  0  0
  3 33  1  0  0  0  0
  4 34  1  0  0  0  0
  6 35  1  0  0  0  0
  7 36  1  0  0  0  0
 13 37  1  0  0  0  0
 16 38  1  0  0  0  0
 19 39  1  0  0  0  0
 20 40  1  0  0  0  0
 23 41  1  0  0  0  0
 24 42  1  0  0  0  0
 25 43  1  0  0  0  0
 26 44  1  0  0  0  0
 27 45  1  0  0  0  0
 28 46  1  0  0  0  0
 29 47  1  0  0  0  0
 30 48  1  0  0  0  0
M  END
$$$$
