C22H12
APtclcactv01171906253D 0   0.00000     0.00000
 
 34 39  0  0  0  0  0  0  0  0999 V2000
   -2.8397   -2.0438   -0.0018 C   0  0  0  0  0  0  0  0  0  0  0  0
   -4.1724   -1.7084    0.0005 C   0  0  0  0  0  0  0  0  0  0  0  0
   -4.5597   -0.3750    0.0038 C   0  0  0  0  0  0  0  0  0  0  0  0
   -3.6169    0.6243    0.0035 C   0  0  0  0  0  0  0  0  0  0  0  0
   -2.2537    0.3188    0.0006 C   0  0  0  0  0  0  0  0  0  0  0  0
   -1.8574   -1.0522   -0.0014 C   0  0  0  0  0  0  0  0  0  0  0  0
   -0.4356   -1.4186   -0.0018 C   0  0  0  0  0  0  0  0  0  0  0  0
    0.4336   -0.3438   -0.0007 C   0  0  0  0  0  0  0  0  0  0  0  0
    1.8028   -0.4158   -0.0000 C   0  0  0  0  0  0  0  0  0  0  0  0
    2.4239   -1.6647   -0.0001 C   0  0  0  0  0  0  0  0  0  0  0  0
    3.8237   -1.6076    0.0014 C   0  0  0  0  0  0  0  0  0  0  0  0
    4.4214   -0.3714    0.0024 C   0  0  0  0  0  0  0  0  0  0  0  0
    3.7499    0.8514    0.0028 C   0  0  0  0  0  0  0  0  0  0  0  0
    2.3650    0.8732    0.0007 C   0  0  0  0  0  0  0  0  0  0  0  0
    1.2330    1.8213   -0.0009 C   0  0  0  0  0  0  0  0  0  0  0  0
    0.9585    3.1815   -0.0015 C   0  0  0  0  0  0  0  0  0  0  0  0
   -0.3633    3.6155   -0.0020 C   0  0  0  0  0  0  0  0  0  0  0  0
   -1.4757    2.7850   -0.0019 C   0  0  0  0  0  0  0  0  0  0  0  0
   -1.2640    1.4085    0.0002 C   0  0  0  0  0  0  0  0  0  0  0  0
    0.0710    1.0338   -0.0006 C   0  0  0  0  0  0  0  0  0  0  0  0
    1.5674   -2.7831   -0.0013 C   0  0  0  0  0  0  0  0  0  0  0  0
    0.1932   -2.6723   -0.0026 C   0  0  0  0  0  0  0  0  0  0  0  0
   -2.5498   -3.0842    0.0004 H   0  0  0  0  0  0  0  0  0  0  0  0
   -4.9222   -2.4857   -0.0004 H   0  0  0  0  0  0  0  0  0  0  0  0
   -5.6095   -0.1216    0.0061 H   0  0  0  0  0  0  0  0  0  0  0  0
   -3.9329    1.6570    0.0051 H   0  0  0  0  0  0  0  0  0  0  0  0
    4.4161   -2.5106    0.0021 H   0  0  0  0  0  0  0  0  0  0  0  0
    5.5010   -0.3435    0.0034 H   0  0  0  0  0  0  0  0  0  0  0  0
    4.3072    1.7765    0.0046 H   0  0  0  0  0  0  0  0  0  0  0  0
    1.7659    3.8988   -0.0012 H   0  0  0  0  0  0  0  0  0  0  0  0
   -0.5375    4.6814   -0.0022 H   0  0  0  0  0  0  0  0  0  0  0  0
   -2.4752    3.1941   -0.0018 H   0  0  0  0  0  0  0  0  0  0  0  0
    2.0061   -3.7700   -0.0022 H   0  0  0  0  0  0  0  0  0  0  0  0
   -0.4105   -3.5678   -0.0036 H   0  0  0  0  0  0  0  0  0  0  0  0
  1  2  2  0  0  0  0
  2  3  1  0  0  0  0
  3  4  2  0  0  0  0
  4  5  1  0  0  0  0
  5  6  2  0  0  0  0
  1  6  1  0  0  0  0
  6  7  1  0  0  0  0
  7  8  2  0  0  0  0
  8  9  1  0  0  0  0
  9 10  2  0  0  0  0
 10 11  1  0  0  0  0
 11 12  2  0  0  0  0
 12 13  1  0  0  0  0
 13 14  2  0  0  0  0
  9 14  1  0  0  0  0
 14 15  1  0  0  0  0
 15 16  1  0  0  0  0
 16 17  2  0  0  0  0
 17 18  1  0  0  0  0
 18 19  2  0  0  0  0
  5 19  1  0  0  0  0
 19 20  1  0  0  0  0
  8 20  1  0  0  0  0
 15 20  2  0  0  0  0
 10 21  1  0  0  0  0
 21 22  2  0  0  0  0
  7 22  1  0  0  0  0
  1 23  1  0  0  0  0
  2 24  1  0  0  0  0
  3 25  1  0  0  0  0
  4 26  1  0  0  0  0
 11 27  1  0  0  0  0
 12 28  1  0  0  0  0
 13 29  1  0  0  0  0
 16 30  1  0  0  0  0
 17 31  1  0  0  0  0
 18 32  1  0  0  0  0
 21 33  1  0  0  0  0
 22 34  1  0  0  0  0
M  END
$$$$
