C24H14
APtclcactv01171906253D 0   0.00000     0.00000
 
 38 43  0  0  0  0  0  0  0  0999 V2000
   -0.9328   -2.6490    0.3228 C   0  0  0  0  0  0  0  0  0  0  0  0
   -0.4076   -3.9207    0.2875 C   0  0  0  0  0  0  0  0  0  0  0  0
    0.9493   -4.1168    0.0752 C   0  0  0  0  0  0  0  0  0  0  0  0
    1.7914   -3.0356   -0.0597 C   0  0  0  0  0  0  0  0  0  0  0  0
    1.2785   -1.7398   -0.0126 C   0  0  0  0  0  0  0  0  0  0  0  0
    2.1721   -0.5723   -0.0511 C   0  0  0  0  0  0  0  0  0  0  0  0
    3.5539   -0.7333   -0.1148 C   0  0  0  0  0  0  0  0  0  0  0  0
    4.3861    0.3709   -0.1236 C   0  0  0  0  0  0  0  0  0  0  0  0
    3.8673    1.6470   -0.0709 C   0  0  0  0  0  0  0  0  0  0  0  0
    2.4835    1.8454   -0.0143 C   0  0  0  0  0  0  0  0  0  0  0  0
    1.9391    3.1997    0.0417 C   0  0  0  0  0  0  0  0  0  0  0  0
    0.6083    3.4108    0.0863 C   0  0  0  0  0  0  0  0  0  0  0  0
   -0.3141    2.2757    0.0755 C   0  0  0  0  0  0  0  0  0  0  0  0
   -1.6863    2.4772    0.1385 C   0  0  0  0  0  0  0  0  0  0  0  0
   -2.5548    1.3808    0.0739 C   0  0  0  0  0  0  0  0  0  0  0  0
   -2.0477    0.0690   -0.1215 C   0  0  0  0  0  0  0  0  0  0  0  0
   -0.6613   -0.1820   -0.0129 C   0  0  0  0  0  0  0  0  0  0  0  0
   -0.1173   -1.5414    0.0824 C   0  0  0  0  0  0  0  0  0  0  0  0
    0.2195    0.9142    0.0237 C   0  0  0  0  0  0  0  0  0  0  0  0
    1.6215    0.7259   -0.0136 C   0  0  0  0  0  0  0  0  0  0  0  0
   -2.9559   -0.9461   -0.4596 C   0  0  0  0  0  0  0  0  0  0  0  0
   -4.2964   -0.7273   -0.3637 C   0  0  0  0  0  0  0  0  0  0  0  0
   -4.7917    0.5241   -0.0039 C   0  0  0  0  0  0  0  0  0  0  0  0
   -3.9456    1.5666    0.2135 C   0  0  0  0  0  0  0  0  0  0  0  0
   -1.9699   -2.5242    0.5949 H   0  0  0  0  0  0  0  0  0  0  0  0
   -1.0594   -4.7717    0.4189 H   0  0  0  0  0  0  0  0  0  0  0  0
    1.3464   -5.1190    0.0181 H   0  0  0  0  0  0  0  0  0  0  0  0
    2.8495   -3.1985   -0.2063 H   0  0  0  0  0  0  0  0  0  0  0  0
    3.9829   -1.7231   -0.1596 H   0  0  0  0  0  0  0  0  0  0  0  0
    5.4554    0.2311   -0.1699 H   0  0  0  0  0  0  0  0  0  0  0  0
    4.5325    2.4982   -0.0717 H   0  0  0  0  0  0  0  0  0  0  0  0
    2.6121    4.0439    0.0467 H   0  0  0  0  0  0  0  0  0  0  0  0
    0.2235    4.4183    0.1314 H   0  0  0  0  0  0  0  0  0  0  0  0
   -2.0814    3.4761    0.2350 H   0  0  0  0  0  0  0  0  0  0  0  0
   -2.6063   -1.8907   -0.8464 H   0  0  0  0  0  0  0  0  0  0  0  0
   -4.9822   -1.5362   -0.5650 H   0  0  0  0  0  0  0  0  0  0  0  0
   -5.8568    0.6682    0.0965 H   0  0  0  0  0  0  0  0  0  0  0  0
   -4.3384    2.5324    0.4929 H   0  0  0  0  0  0  0  0  0  0  0  0
  1  2  2  0  0  0  0
  2  3  1  0  0  0  0
  3  4  2  0  0  0  0
  4  5  1  0  0  0  0
  5  6  1  0  0  0  0
  6  7  1  0  0  0  0
  7  8  2  0  0  0  0
  8  9  1  0  0  0  0
  9 10  2  0  0  0  0
 10 11  1  0  0  0  0
 11 12  2  0  0  0  0
 12 13  1  0  0  0  0
 13 14  1  0  0  0  0
 14 15  2  0  0  0  0
 15 16  1  0  0  0  0
 16 17  2  0  0  0  0
 17 18  1  0  0  0  0
  5 18  2  0  0  0  0
  1 18  1  0  0  0  0
 17 19  1  0  0  0  0
 13 19  2  0  0  0  0
 19 20  1  0  0  0  0
 10 20  1  0  0  0  0
  6 20  2  0  0  0  0
 16 21  1  0  0  0  0
 21 22  2  0  0  0  0
 22 23  1  0  0  0  0
 23 24  2  0  0  0  0
 15 24  1  0  0  0  0
  1 25  1  0  0  0  0
  2 26  1  0  0  0  0
  3 27  1  0  0  0  0
  4 28  1  0  0  0  0
  7 29  1  0  0  0  0
  8 30  1  0  0  0  0
  9 31  1  0  0  0  0
 11 32  1  0  0  0  0
 12 33  1  0  0  0  0
 14 34  1  0  0  0  0
 21 35  1  0  0  0  0
 22 36  1  0  0  0  0
 23 37  1  0  0  0  0
 24 38  1  0  0  0  0
M  END
$$$$
