C26H16
APtclcactv01171906253D 0   0.00000     0.00000
 
 42 47  0  0  0  0  0  0  0  0999 V2000
    1.6357   -1.8434    0.5269 C   0  0  0  0  0  0  0  0  0  0  0  0
    2.0902   -3.1296    0.4862 C   0  0  0  0  0  0  0  0  0  0  0  0
    3.3921   -3.4160    0.0899 C   0  0  0  0  0  0  0  0  0  0  0  0
    4.2569   -2.4107   -0.2211 C   0  0  0  0  0  0  0  0  0  0  0  0
    3.8324   -1.0763   -0.1336 C   0  0  0  0  0  0  0  0  0  0  0  0
    2.4726   -0.7882    0.1516 C   0  0  0  0  0  0  0  0  0  0  0  0
    2.0174    0.5927    0.0428 C   0  0  0  0  0  0  0  0  0  0  0  0
    0.6087    0.9814    0.0113 C   0  0  0  0  0  0  0  0  0  0  0  0
   -0.4178    0.0517   -0.1079 C   0  0  0  0  0  0  0  0  0  0  0  0
   -1.7465    0.4525   -0.0368 C   0  0  0  0  0  0  0  0  0  0  0  0
   -2.8329   -0.5342   -0.0868 C   0  0  0  0  0  0  0  0  0  0  0  0
   -4.1716   -0.0899   -0.0234 C   0  0  0  0  0  0  0  0  0  0  0  0
   -4.4644    1.3357    0.0870 C   0  0  0  0  0  0  0  0  0  0  0  0
   -3.4698    2.2449    0.1366 C   0  0  0  0  0  0  0  0  0  0  0  0
   -2.0713    1.8288    0.0774 C   0  0  0  0  0  0  0  0  0  0  0  0
   -1.0497    2.7746    0.1203 C   0  0  0  0  0  0  0  0  0  0  0  0
    0.2825    2.3658    0.0688 C   0  0  0  0  0  0  0  0  0  0  0  0
    1.3151    3.3329    0.0422 C   0  0  0  0  0  0  0  0  0  0  0  0
    2.6084    2.9667   -0.0359 C   0  0  0  0  0  0  0  0  0  0  0  0
    2.9920    1.6071   -0.0592 C   0  0  0  0  0  0  0  0  0  0  0  0
    4.3518    1.2675   -0.2218 C   0  0  0  0  0  0  0  0  0  0  0  0
    4.7554   -0.0194   -0.2804 C   0  0  0  0  0  0  0  0  0  0  0  0
   -5.2093   -1.0317   -0.0616 C   0  0  0  0  0  0  0  0  0  0  0  0
   -4.9146   -2.3606   -0.1569 C   0  0  0  0  0  0  0  0  0  0  0  0
   -3.5974   -2.7952   -0.2206 C   0  0  0  0  0  0  0  0  0  0  0  0
   -2.5653   -1.9006   -0.1882 C   0  0  0  0  0  0  0  0  0  0  0  0
    0.6456   -1.6560    0.9121 H   0  0  0  0  0  0  0  0  0  0  0  0
    1.4287   -3.9371    0.7656 H   0  0  0  0  0  0  0  0  0  0  0  0
    3.7201   -4.4417    0.0261 H   0  0  0  0  0  0  0  0  0  0  0  0
    5.2653   -2.6385   -0.5348 H   0  0  0  0  0  0  0  0  0  0  0  0
   -0.1991   -0.9826   -0.3235 H   0  0  0  0  0  0  0  0  0  0  0  0
   -5.4904    1.6676    0.1263 H   0  0  0  0  0  0  0  0  0  0  0  0
   -3.7114    3.2941    0.2203 H   0  0  0  0  0  0  0  0  0  0  0  0
   -1.2883    3.8267    0.1910 H   0  0  0  0  0  0  0  0  0  0  0  0
    1.0605    4.3810    0.0871 H   0  0  0  0  0  0  0  0  0  0  0  0
    3.3722    3.7302   -0.0827 H   0  0  0  0  0  0  0  0  0  0  0  0
    5.0855    2.0555   -0.2984 H   0  0  0  0  0  0  0  0  0  0  0  0
    5.7983   -0.2448   -0.4376 H   0  0  0  0  0  0  0  0  0  0  0  0
   -6.2383   -0.7072   -0.0152 H   0  0  0  0  0  0  0  0  0  0  0  0
   -5.7161   -3.0848   -0.1806 H   0  0  0  0  0  0  0  0  0  0  0  0
   -3.3844   -3.8512   -0.2946 H   0  0  0  0  0  0  0  0  0  0  0  0
   -1.5466   -2.2543   -0.2393 H   0  0  0  0  0  0  0  0  0  0  0  0
  1  2  2  0  0  0  0
  2  3  1  0  0  0  0
  3  4  2  0  0  0  0
  4  5  1  0  0  0  0
  5  6  1  0  0  0  0
  1  6  1  0  0  0  0
  6  7  2  0  0  0  0
  7  8  1  0  0  0  0
  8  9  2  0  0  0  0
  9 10  1  0  0  0  0
 10 11  2  0  0  0  0
 11 12  1  0  0  0  0
 12 13  2  0  0  0  0
 13 14  1  0  0  0  0
 14 15  2  0  0  0  0
 10 15  1  0  0  0  0
 15 16  1  0  0  0  0
 16 17  2  0  0  0  0
  8 17  1  0  0  0  0
 17 18  1  0  0  0  0
 18 19  2  0  0  0  0
 19 20  1  0  0  0  0
  7 20  1  0  0  0  0
 20 21  2  0  0  0  0
 21 22  1  0  0  0  0
  5 22  2  0  0  0  0
 12 23  1  0  0  0  0
 23 24  2  0  0  0  0
 24 25  1  0  0  0  0
 25 26  2  0  0  0  0
 11 26  1  0  0  0  0
  1 27  1  0  0  0  0
  2 28  1  0  0  0  0
  3 29  1  0  0  0  0
  4 30  1  0  0  0  0
  9 31  1  0  0  0  0
 13 32  1  0  0  0  0
 14 33  1  0  0  0  0
 16 34  1  0  0  0  0
 18 35  1  0  0  0  0
 19 36  1  0  0  0  0
 21 37  1  0  0  0  0
 22 38  1  0  0  0  0
 23 39  1  0  0  0  0
 24 40  1  0  0  0  0
 25 41  1  0  0  0  0
 26 42  1  0  0  0  0
M  END
$$$$
