C36H20
APtclcactv01171906263D 0   0.00000     0.00000
 
 56 64  0  0  0  0  0  0  0  0999 V2000
   -6.8108   -1.9140    0.0015 C   0  0  0  0  0  0  0  0  0  0  0  0
   -8.1739   -1.9899    0.0032 C   0  0  0  0  0  0  0  0  0  0  0  0
   -8.9501   -0.8360    0.0045 C   0  0  0  0  0  0  0  0  0  0  0  0
   -8.3717    0.3988    0.0041 C   0  0  0  0  0  0  0  0  0  0  0  0
   -6.9733    0.5123    0.0024 C   0  0  0  0  0  0  0  0  0  0  0  0
   -6.3437    1.7765    0.0019 C   0  0  0  0  0  0  0  0  0  0  0  0
   -4.9962    1.8896    0.0004 C   0  0  0  0  0  0  0  0  0  0  0  0
   -4.1639    0.7553   -0.0012 C   0  0  0  0  0  0  0  0  0  0  0  0
   -2.7070    0.8798   -0.0025 C   0  0  0  0  0  0  0  0  0  0  0  0
   -2.0766    2.1369   -0.0016 C   0  0  0  0  0  0  0  0  0  0  0  0
   -0.7271    2.2491   -0.0018 C   0  0  0  0  0  0  0  0  0  0  0  0
    0.1071    1.1144   -0.0024 C   0  0  0  0  0  0  0  0  0  0  0  0
    1.5161    1.2611   -0.0016 C   0  0  0  0  0  0  0  0  0  0  0  0
    2.1300    2.5314   -0.0003 C   0  0  0  0  0  0  0  0  0  0  0  0
    3.4766    2.6728    0.0007 C   0  0  0  0  0  0  0  0  0  0  0  0
    4.3264    1.5379    0.0003 C   0  0  0  0  0  0  0  0  0  0  0  0
    5.7092    1.6517    0.0015 C   0  0  0  0  0  0  0  0  0  0  0  0
    6.5225    0.5079    0.0016 C   0  0  0  0  0  0  0  0  0  0  0  0
    5.9585   -0.7937    0.0009 C   0  0  0  0  0  0  0  0  0  0  0  0
    4.5056   -0.9520    0.0001 C   0  0  0  0  0  0  0  0  0  0  0  0
    3.7142    0.2091   -0.0008 C   0  0  0  0  0  0  0  0  0  0  0  0
    2.3123    0.1013   -0.0018 C   0  0  0  0  0  0  0  0  0  0  0  0
    1.7055   -1.2282   -0.0018 C   0  0  0  0  0  0  0  0  0  0  0  0
    0.3170   -1.3325   -0.0025 C   0  0  0  0  0  0  0  0  0  0  0  0
   -0.4677   -0.1794   -0.0032 C   0  0  0  0  0  0  0  0  0  0  0  0
   -1.9327   -0.2964   -0.0035 C   0  0  0  0  0  0  0  0  0  0  0  0
   -2.5513   -1.5542   -0.0041 C   0  0  0  0  0  0  0  0  0  0  0  0
   -3.9040   -1.6704   -0.0041 C   0  0  0  0  0  0  0  0  0  0  0  0
   -4.7287   -0.5365   -0.0011 C   0  0  0  0  0  0  0  0  0  0  0  0
   -6.1883   -0.6632    0.0011 C   0  0  0  0  0  0  0  0  0  0  0  0
    2.5488   -2.3634   -0.0007 C   0  0  0  0  0  0  0  0  0  0  0  0
    3.8974   -2.2219   -0.0008 C   0  0  0  0  0  0  0  0  0  0  0  0
    6.8001   -1.9132    0.0014 C   0  0  0  0  0  0  0  0  0  0  0  0
    8.1525   -1.7448    0.0026 C   0  0  0  0  0  0  0  0  0  0  0  0
    8.7123   -0.4689    0.0034 C   0  0  0  0  0  0  0  0  0  0  0  0
    7.9265    0.6410    0.0028 C   0  0  0  0  0  0  0  0  0  0  0  0
   -6.2168   -2.8160    0.0050 H   0  0  0  0  0  0  0  0  0  0  0  0
   -8.6548   -2.9569    0.0031 H   0  0  0  0  0  0  0  0  0  0  0  0
  -10.0269   -0.9191    0.0054 H   0  0  0  0  0  0  0  0  0  0  0  0
   -8.9876    1.2860    0.0047 H   0  0  0  0  0  0  0  0  0  0  0  0
   -6.9502    2.6701    0.0023 H   0  0  0  0  0  0  0  0  0  0  0  0
   -4.5489    2.8726    0.0001 H   0  0  0  0  0  0  0  0  0  0  0  0
   -2.6814    3.0317   -0.0012 H   0  0  0  0  0  0  0  0  0  0  0  0
   -0.2798    3.2321   -0.0019 H   0  0  0  0  0  0  0  0  0  0  0  0
    1.5091    3.4150   -0.0003 H   0  0  0  0  0  0  0  0  0  0  0  0
    3.9088    3.6625    0.0014 H   0  0  0  0  0  0  0  0  0  0  0  0
    6.1647    2.6309    0.0019 H   0  0  0  0  0  0  0  0  0  0  0  0
   -0.1520   -2.3054   -0.0029 H   0  0  0  0  0  0  0  0  0  0  0  0
   -1.9418   -2.4457   -0.0050 H   0  0  0  0  0  0  0  0  0  0  0  0
   -4.3523   -2.6529   -0.0046 H   0  0  0  0  0  0  0  0  0  0  0  0
    2.1146   -3.3523   -0.0006 H   0  0  0  0  0  0  0  0  0  0  0  0
    4.5199   -3.1045    0.0000 H   0  0  0  0  0  0  0  0  0  0  0  0
    6.3785   -2.9074    0.0012 H   0  0  0  0  0  0  0  0  0  0  0  0
    8.7980   -2.6107    0.0034 H   0  0  0  0  0  0  0  0  0  0  0  0
    9.7868   -0.3597    0.0047 H   0  0  0  0  0  0  0  0  0  0  0  0
    8.3768    1.6226    0.0037 H   0  0  0  0  0  0  0  0  0  0  0  0
  1  2  2  0  0  0  0
  2  3  1  0  0  0  0
  3  4  2  0  0  0  0
  4  5  1  0  0  0  0
  5  6  1  0  0  0  0
  6  7  2  0  0  0  0
  7  8  1  0  0  0  0
  8  9  1  0  0  0  0
  9 10  1  0  0  0  0
 10 11  2  0  0  0  0
 11 12  1  0  0  0  0
 12 13  2  0  0  0  0
 13 14  1  0  0  0  0
 14 15  2  0  0  0  0
 15 16  1  0  0  0  0
 16 17  1  0  0  0  0
 17 18  2  0  0  0  0
 18 19  1  0  0  0  0
 19 20  2  0  0  0  0
 20 21  1  0  0  0  0
 16 21  2  0  0  0  0
 21 22  1  0  0  0  0
 13 22  1  0  0  0  0
 22 23  2  0  0  0  0
 23 24  1  0  0  0  0
 24 25  2  0  0  0  0
 12 25  1  0  0  0  0
 25 26  1  0  0  0  0
  9 26  2  0  0  0  0
 26 27  1  0  0  0  0
 27 28  2  0  0  0  0
 28 29  1  0  0  0  0
  8 29  2  0  0  0  0
 29 30  1  0  0  0  0
  1 30  1  0  0  0  0
  5 30  2  0  0  0  0
 23 31  1  0  0  0  0
 31 32  2  0  0  0  0
 20 32  1  0  0  0  0
 19 33  1  0  0  0  0
 33 34  2  0  0  0  0
 34 35  1  0  0  0  0
 35 36  2  0  0  0  0
 18 36  1  0  0  0  0
  1 37  1  0  0  0  0
  2 38  1  0  0  0  0
  3 39  1  0  0  0  0
  4 40  1  0  0  0  0
  6 41  1  0  0  0  0
  7 42  1  0  0  0  0
 10 43  1  0  0  0  0
 11 44  1  0  0  0  0
 14 45  1  0  0  0  0
 15 46  1  0  0  0  0
 17 47  1  0  0  0  0
 24 48  1  0  0  0  0
 27 49  1  0  0  0  0
 28 50  1  0  0  0  0
 31 51  1  0  0  0  0
 32 52  1  0  0  0  0
 33 53  1  0  0  0  0
 34 54  1  0  0  0  0
 35 55  1  0  0  0  0
 36 56  1  0  0  0  0
M  END
$$$$
