C22H14
APtclcactv01171906253D 0   0.00000     0.00000
 
 36 40  0  0  0  0  0  0  0  0999 V2000
    1.5855   -1.8063    0.4870 C   0  0  0  0  0  0  0  0  0  0  0  0
    2.4349   -2.8689    0.3849 C   0  0  0  0  0  0  0  0  0  0  0  0
    3.7574   -2.6907   -0.0099 C   0  0  0  0  0  0  0  0  0  0  0  0
    4.2444   -1.4431   -0.2605 C   0  0  0  0  0  0  0  0  0  0  0  0
    3.4034   -0.3299   -0.1241 C   0  0  0  0  0  0  0  0  0  0  0  0
    2.0226   -0.5244    0.1374 C   0  0  0  0  0  0  0  0  0  0  0  0
    1.1287    0.6216    0.0444 C   0  0  0  0  0  0  0  0  0  0  0  0
   -0.3286    0.5057   -0.0138 C   0  0  0  0  0  0  0  0  0  0  0  0
   -0.9741   -0.7086   -0.1881 C   0  0  0  0  0  0  0  0  0  0  0  0
   -2.3696   -0.7736   -0.1467 C   0  0  0  0  0  0  0  0  0  0  0  0
   -3.1566    0.4464    0.0467 C   0  0  0  0  0  0  0  0  0  0  0  0
   -2.5116    1.6792    0.1433 C   0  0  0  0  0  0  0  0  0  0  0  0
   -1.1228    1.7371    0.0865 C   0  0  0  0  0  0  0  0  0  0  0  0
   -0.4598    2.9883    0.0878 C   0  0  0  0  0  0  0  0  0  0  0  0
    0.8823    3.0612    0.0233 C   0  0  0  0  0  0  0  0  0  0  0  0
    1.7003    1.9095   -0.0096 C   0  0  0  0  0  0  0  0  0  0  0  0
    3.0998    2.0529   -0.1258 C   0  0  0  0  0  0  0  0  0  0  0  0
    3.9175    0.9811   -0.2029 C   0  0  0  0  0  0  0  0  0  0  0  0
   -4.5605    0.3428    0.1291 C   0  0  0  0  0  0  0  0  0  0  0  0
   -5.1499   -0.8748    0.0058 C   0  0  0  0  0  0  0  0  0  0  0  0
   -4.4020   -2.0329   -0.2043 C   0  0  0  0  0  0  0  0  0  0  0  0
   -3.0462   -2.0027   -0.2850 C   0  0  0  0  0  0  0  0  0  0  0  0
    0.5954   -1.9619    0.8885 H   0  0  0  0  0  0  0  0  0  0  0  0
    2.0757   -3.8614    0.6132 H   0  0  0  0  0  0  0  0  0  0  0  0
    4.4036   -3.5487   -0.1182 H   0  0  0  0  0  0  0  0  0  0  0  0
    5.2725   -1.3131   -0.5649 H   0  0  0  0  0  0  0  0  0  0  0  0
   -0.4169   -1.6071   -0.4055 H   0  0  0  0  0  0  0  0  0  0  0  0
   -3.0872    2.5862    0.2599 H   0  0  0  0  0  0  0  0  0  0  0  0
   -1.0410    3.8970    0.1411 H   0  0  0  0  0  0  0  0  0  0  0  0
    1.3509    4.0342   -0.0061 H   0  0  0  0  0  0  0  0  0  0  0  0
    3.5269    3.0449   -0.1500 H   0  0  0  0  0  0  0  0  0  0  0  0
    4.9801    1.1281   -0.3239 H   0  0  0  0  0  0  0  0  0  0  0  0
   -5.1633    1.2247    0.2881 H   0  0  0  0  0  0  0  0  0  0  0  0
   -6.2252   -0.9482    0.0742 H   0  0  0  0  0  0  0  0  0  0  0  0
   -4.9138   -2.9786   -0.3048 H   0  0  0  0  0  0  0  0  0  0  0  0
   -2.4909   -2.9131   -0.4558 H   0  0  0  0  0  0  0  0  0  0  0  0
  1  2  2  0  0  0  0
  2  3  1  0  0  0  0
  3  4  2  0  0  0  0
  4  5  1  0  0  0  0
  5  6  1  0  0  0  0
  1  6  1  0  0  0  0
  6  7  2  0  0  0  0
  7  8  1  0  0  0  0
  8  9  1  0  0  0  0
  9 10  2  0  0  0  0
 10 11  1  0  0  0  0
 11 12  2  0  0  0  0
 12 13  1  0  0  0  0
  8 13  2  0  0  0  0
 13 14  1  0  0  0  0
 14 15  2  0  0  0  0
 15 16  1  0  0  0  0
  7 16  1  0  0  0  0
 16 17  2  0  0  0  0
 17 18  1  0  0  0  0
  5 18  2  0  0  0  0
 11 19  1  0  0  0  0
 19 20  2  0  0  0  0
 20 21  1  0  0  0  0
 21 22  2  0  0  0  0
 10 22  1  0  0  0  0
  1 23  1  0  0  0  0
  2 24  1  0  0  0  0
  3 25  1  0  0  0  0
  4 26  1  0  0  0  0
  9 27  1  0  0  0  0
 12 28  1  0  0  0  0
 14 29  1  0  0  0  0
 15 30  1  0  0  0  0
 17 31  1  0  0  0  0
 18 32  1  0  0  0  0
 19 33  1  0  0  0  0
 20 34  1  0  0  0  0
 21 35  1  0  0  0  0
 22 36  1  0  0  0  0
M  END
$$$$
