C34H18
APtclcactv01171906273D 0   0.00000     0.00000
 
 52 60  0  0  0  0  0  0  0  0999 V2000
   -3.4027   -3.6455    0.0354 C   0  0  0  0  0  0  0  0  0  0  0  0
   -4.6399   -3.0910    0.2877 C   0  0  0  0  0  0  0  0  0  0  0  0
   -4.8124   -1.7180    0.3041 C   0  0  0  0  0  0  0  0  0  0  0  0
   -3.7275   -0.8707    0.0994 C   0  0  0  0  0  0  0  0  0  0  0  0
   -3.8963    0.5878    0.0258 C   0  0  0  0  0  0  0  0  0  0  0  0
   -2.7554    1.4075   -0.1312 C   0  0  0  0  0  0  0  0  0  0  0  0
   -1.4198    0.8112   -0.0232 C   0  0  0  0  0  0  0  0  0  0  0  0
   -0.2535    1.5919    0.1569 C   0  0  0  0  0  0  0  0  0  0  0  0
   -0.3191    2.9631    0.4363 C   0  0  0  0  0  0  0  0  0  0  0  0
    0.8029    3.7389    0.4041 C   0  0  0  0  0  0  0  0  0  0  0  0
    2.0535    3.1717    0.2102 C   0  0  0  0  0  0  0  0  0  0  0  0
    2.1812    1.7964    0.0879 C   0  0  0  0  0  0  0  0  0  0  0  0
    3.5119    1.1778   -0.0489 C   0  0  0  0  0  0  0  0  0  0  0  0
    3.6284   -0.2258    0.0232 C   0  0  0  0  0  0  0  0  0  0  0  0
    2.4746   -1.0382    0.1357 C   0  0  0  0  0  0  0  0  0  0  0  0
    1.1441   -0.4261    0.0041 C   0  0  0  0  0  0  0  0  0  0  0  0
   -0.0116   -1.1960   -0.2013 C   0  0  0  0  0  0  0  0  0  0  0  0
    0.0637   -2.5649   -0.5417 C   0  0  0  0  0  0  0  0  0  0  0  0
   -1.0258   -3.3623   -0.4935 C   0  0  0  0  0  0  0  0  0  0  0  0
   -2.2934   -2.8201   -0.1736 C   0  0  0  0  0  0  0  0  0  0  0  0
   -2.4390   -1.4190   -0.0624 C   0  0  0  0  0  0  0  0  0  0  0  0
   -1.2926   -0.5905   -0.0873 C   0  0  0  0  0  0  0  0  0  0  0  0
    1.0247    0.9801    0.0818 C   0  0  0  0  0  0  0  0  0  0  0  0
    2.6470   -2.3926    0.3863 C   0  0  0  0  0  0  0  0  0  0  0  0
    3.9147   -2.9612    0.3985 C   0  0  0  0  0  0  0  0  0  0  0  0
    5.0313   -2.2077    0.1862 C   0  0  0  0  0  0  0  0  0  0  0  0
    4.9106   -0.8201   -0.0068 C   0  0  0  0  0  0  0  0  0  0  0  0
    6.0391   -0.0116   -0.2264 C   0  0  0  0  0  0  0  0  0  0  0  0
    5.8982    1.3406   -0.3422 C   0  0  0  0  0  0  0  0  0  0  0  0
    4.6508    1.9447   -0.2478 C   0  0  0  0  0  0  0  0  0  0  0  0
   -2.9464    2.7663   -0.3934 C   0  0  0  0  0  0  0  0  0  0  0  0
   -4.2075    3.3153   -0.3425 C   0  0  0  0  0  0  0  0  0  0  0  0
   -5.3119    2.5227   -0.0624 C   0  0  0  0  0  0  0  0  0  0  0  0
   -5.1626    1.1652    0.1108 C   0  0  0  0  0  0  0  0  0  0  0  0
   -3.2927   -4.7189   -0.0049 H   0  0  0  0  0  0  0  0  0  0  0  0
   -5.4861   -3.7355    0.4735 H   0  0  0  0  0  0  0  0  0  0  0  0
   -5.7958   -1.3075    0.4778 H   0  0  0  0  0  0  0  0  0  0  0  0
   -1.2493    3.4177    0.7425 H   0  0  0  0  0  0  0  0  0  0  0  0
    0.7163    4.8080    0.5272 H   0  0  0  0  0  0  0  0  0  0  0  0
    2.9263    3.8041    0.1552 H   0  0  0  0  0  0  0  0  0  0  0  0
    0.9927   -2.9835   -0.8988 H   0  0  0  0  0  0  0  0  0  0  0  0
   -0.9276   -4.4177   -0.6969 H   0  0  0  0  0  0  0  0  0  0  0  0
    1.8008   -3.0186    0.6275 H   0  0  0  0  0  0  0  0  0  0  0  0
    4.0175   -4.0214    0.5779 H   0  0  0  0  0  0  0  0  0  0  0  0
    6.0050   -2.6733    0.1653 H   0  0  0  0  0  0  0  0  0  0  0  0
    7.0181   -0.4614   -0.3015 H   0  0  0  0  0  0  0  0  0  0  0  0
    6.7725    1.9530   -0.5066 H   0  0  0  0  0  0  0  0  0  0  0  0
    4.5734    3.0186   -0.3299 H   0  0  0  0  0  0  0  0  0  0  0  0
   -2.1204    3.3916   -0.6988 H   0  0  0  0  0  0  0  0  0  0  0  0
   -4.3382    4.3723   -0.5215 H   0  0  0  0  0  0  0  0  0  0  0  0
   -6.2897    2.9714    0.0214 H   0  0  0  0  0  0  0  0  0  0  0  0
   -6.0288    0.5530    0.3158 H   0  0  0  0  0  0  0  0  0  0  0  0
  1  2  2  0  0  0  0
  2  3  1  0  0  0  0
  3  4  2  0  0  0  0
  4  5  1  0  0  0  0
  5  6  2  0  0  0  0
  6  7  1  0  0  0  0
  7  8  2  0  0  0  0
  8  9  1  0  0  0  0
  9 10  2  0  0  0  0
 10 11  1  0  0  0  0
 11 12  2  0  0  0  0
 12 13  1  0  0  0  0
 13 14  2  0  0  0  0
 14 15  1  0  0  0  0
 15 16  1  0  0  0  0
 16 17  1  0  0  0  0
 17 18  1  0  0  0  0
 18 19  2  0  0  0  0
 19 20  1  0  0  0  0
  1 20  1  0  0  0  0
 20 21  2  0  0  0  0
  4 21  1  0  0  0  0
 21 22  1  0  0  0  0
  7 22  1  0  0  0  0
 17 22  2  0  0  0  0
 16 23  2  0  0  0  0
 12 23  1  0  0  0  0
  8 23  1  0  0  0  0
 15 24  2  0  0  0  0
 24 25  1  0  0  0  0
 25 26  2  0  0  0  0
 26 27  1  0  0  0  0
 14 27  1  0  0  0  0
 27 28  2  0  0  0  0
 28 29  1  0  0  0  0
 29 30  2  0  0  0  0
 13 30  1  0  0  0  0
  6 31  1  0  0  0  0
 31 32  2  0  0  0  0
 32 33  1  0  0  0  0
 33 34  2  0  0  0  0
  5 34  1  0  0  0  0
  1 35  1  0  0  0  0
  2 36  1  0  0  0  0
  3 37  1  0  0  0  0
  9 38  1  0  0  0  0
 10 39  1  0  0  0  0
 11 40  1  0  0  0  0
 18 41  1  0  0  0  0
 19 42  1  0  0  0  0
 24 43  1  0  0  0  0
 25 44  1  0  0  0  0
 26 45  1  0  0  0  0
 28 46  1  0  0  0  0
 29 47  1  0  0  0  0
 30 48  1  0  0  0  0
 31 49  1  0  0  0  0
 32 50  1  0  0  0  0
 33 51  1  0  0  0  0
 34 52  1  0  0  0  0
M  END
$$$$
