C24H14
APtclcactv01171906263D 0   0.00000     0.00000
 
 38 43  0  0  0  0  0  0  0  0999 V2000
    1.2020   -2.8323   -0.0008 C   0  0  0  0  0  0  0  0  0  0  0  0
    0.0007   -3.5143    0.0004 C   0  0  0  0  0  0  0  0  0  0  0  0
   -1.2009   -2.8328    0.0011 C   0  0  0  0  0  0  0  0  0  0  0  0
   -1.2176   -1.4397    0.0007 C   0  0  0  0  0  0  0  0  0  0  0  0
   -2.4935   -0.7039    0.0004 C   0  0  0  0  0  0  0  0  0  0  0  0
   -2.4936    0.7031   -0.0005 C   0  0  0  0  0  0  0  0  0  0  0  0
   -1.2178    1.4394   -0.0001 C   0  0  0  0  0  0  0  0  0  0  0  0
   -1.2020    2.8325   -0.0004 C   0  0  0  0  0  0  0  0  0  0  0  0
   -0.0006    3.5144    0.0003 C   0  0  0  0  0  0  0  0  0  0  0  0
    1.2010    2.8329    0.0010 C   0  0  0  0  0  0  0  0  0  0  0  0
    1.2176    1.4399    0.0008 C   0  0  0  0  0  0  0  0  0  0  0  0
    2.4935    0.7039    0.0005 C   0  0  0  0  0  0  0  0  0  0  0  0
    2.4935   -0.7031   -0.0001 C   0  0  0  0  0  0  0  0  0  0  0  0
    1.2178   -1.4393   -0.0008 C   0  0  0  0  0  0  0  0  0  0  0  0
    0.0000   -0.7310   -0.0000 C   0  0  0  0  0  0  0  0  0  0  0  0
   -0.0000    0.7312    0.0010 C   0  0  0  0  0  0  0  0  0  0  0  0
    3.7075   -1.3927   -0.0009 C   0  0  0  0  0  0  0  0  0  0  0  0
    4.8939   -0.6938   -0.0011 C   0  0  0  0  0  0  0  0  0  0  0  0
    4.8939    0.6937   -0.0001 C   0  0  0  0  0  0  0  0  0  0  0  0
    3.7078    1.3930    0.0003 C   0  0  0  0  0  0  0  0  0  0  0  0
   -3.7077    1.3926   -0.0012 C   0  0  0  0  0  0  0  0  0  0  0  0
   -4.8939    0.6935   -0.0010 C   0  0  0  0  0  0  0  0  0  0  0  0
   -4.8939   -0.6940   -0.0001 C   0  0  0  0  0  0  0  0  0  0  0  0
   -3.7077   -1.3931    0.0006 C   0  0  0  0  0  0  0  0  0  0  0  0
    2.1322   -3.3810    0.0028 H   0  0  0  0  0  0  0  0  0  0  0  0
    0.0009   -4.5943    0.0003 H   0  0  0  0  0  0  0  0  0  0  0  0
   -2.1309   -3.3819    0.0016 H   0  0  0  0  0  0  0  0  0  0  0  0
   -2.1322    3.3812   -0.0017 H   0  0  0  0  0  0  0  0  0  0  0  0
   -0.0008    4.5944    0.0001 H   0  0  0  0  0  0  0  0  0  0  0  0
    2.1309    3.3821    0.0012 H   0  0  0  0  0  0  0  0  0  0  0  0
    3.7160   -2.4727   -0.0010 H   0  0  0  0  0  0  0  0  0  0  0  0
    5.8315   -1.2298   -0.0017 H   0  0  0  0  0  0  0  0  0  0  0  0
    5.8317    1.2294    0.0005 H   0  0  0  0  0  0  0  0  0  0  0  0
    3.7167    2.4730    0.0007 H   0  0  0  0  0  0  0  0  0  0  0  0
   -3.7163    2.4725   -0.0015 H   0  0  0  0  0  0  0  0  0  0  0  0
   -5.8316    1.2293   -0.0012 H   0  0  0  0  0  0  0  0  0  0  0  0
   -5.8316   -1.2298    0.0000 H   0  0  0  0  0  0  0  0  0  0  0  0
   -3.7164   -2.4731    0.0016 H   0  0  0  0  0  0  0  0  0  0  0  0
  1  2  2  0  0  0  0
  2  3  1  0  0  0  0
  3  4  2  0  0  0  0
  4  5  1  0  0  0  0
  5  6  2  0  0  0  0
  6  7  1  0  0  0  0
  7  8  1  0  0  0  0
  8  9  2  0  0  0  0
  9 10  1  0  0  0  0
 10 11  2  0  0  0  0
 11 12  1  0  0  0  0
 12 13  2  0  0  0  0
 13 14  1  0  0  0  0
  1 14  1  0  0  0  0
 14 15  2  0  0  0  0
  4 15  1  0  0  0  0
 15 16  1  0  0  0  0
 11 16  1  0  0  0  0
  7 16  2  0  0  0  0
 13 17  1  0  0  0  0
 17 18  2  0  0  0  0
 18 19  1  0  0  0  0
 19 20  2  0  0  0  0
 12 20  1  0  0  0  0
  6 21  1  0  0  0  0
 21 22  2  0  0  0  0
 22 23  1  0  0  0  0
 23 24  2  0  0  0  0
  5 24  1  0  0  0  0
  1 25  1  0  0  0  0
  2 26  1  0  0  0  0
  3 27  1  0  0  0  0
  8 28  1  0  0  0  0
  9 29  1  0  0  0  0
 10 30  1  0  0  0  0
 17 31  1  0  0  0  0
 18 32  1  0  0  0  0
 19 33  1  0  0  0  0
 20 34  1  0  0  0  0
 21 35  1  0  0  0  0
 22 36  1  0  0  0  0
 23 37  1  0  0  0  0
 24 38  1  0  0  0  0
M  END
$$$$
