C26H16
APtclcactv01171906253D 0   0.00000     0.00000
 
 42 47  0  0  0  0  0  0  0  0999 V2000
    0.2367   -2.3104   -0.4503 C   0  0  0  0  0  0  0  0  0  0  0  0
    0.7862   -3.5584   -0.3797 C   0  0  0  0  0  0  0  0  0  0  0  0
    2.1266   -3.7253   -0.0619 C   0  0  0  0  0  0  0  0  0  0  0  0
    2.9318   -2.6271    0.1355 C   0  0  0  0  0  0  0  0  0  0  0  0
    2.3924   -1.3433    0.0373 C   0  0  0  0  0  0  0  0  0  0  0  0
    1.0052   -1.1781   -0.1678 C   0  0  0  0  0  0  0  0  0  0  0  0
    0.4087    0.1576   -0.0755 C   0  0  0  0  0  0  0  0  0  0  0  0
   -1.0381    0.3626    0.0168 C   0  0  0  0  0  0  0  0  0  0  0  0
   -1.9301   -0.6722    0.2541 C   0  0  0  0  0  0  0  0  0  0  0  0
   -3.3063   -0.4404    0.2010 C   0  0  0  0  0  0  0  0  0  0  0  0
   -3.8153    0.9115   -0.0454 C   0  0  0  0  0  0  0  0  0  0  0  0
   -2.9220    1.9732   -0.1783 C   0  0  0  0  0  0  0  0  0  0  0  0
   -1.5526    1.7326   -0.1153 C   0  0  0  0  0  0  0  0  0  0  0  0
   -0.6370    2.8093   -0.1330 C   0  0  0  0  0  0  0  0  0  0  0  0
    0.6916    2.5838   -0.0834 C   0  0  0  0  0  0  0  0  0  0  0  0
    1.2400    1.2874   -0.0559 C   0  0  0  0  0  0  0  0  0  0  0  0
    2.7019    1.1254    0.0156 C   0  0  0  0  0  0  0  0  0  0  0  0
    3.5403    2.2434    0.0210 C   0  0  0  0  0  0  0  0  0  0  0  0
    4.9046    2.0804    0.1029 C   0  0  0  0  0  0  0  0  0  0  0  0
    5.4594    0.8116    0.1851 C   0  0  0  0  0  0  0  0  0  0  0  0
    4.6534   -0.3043    0.1752 C   0  0  0  0  0  0  0  0  0  0  0  0
    3.2672   -0.1623    0.0813 C   0  0  0  0  0  0  0  0  0  0  0  0
   -5.2087    1.1067   -0.1418 C   0  0  0  0  0  0  0  0  0  0  0  0
   -6.0443    0.0473    0.0140 C   0  0  0  0  0  0  0  0  0  0  0  0
   -5.5612   -1.2359    0.2697 C   0  0  0  0  0  0  0  0  0  0  0  0
   -4.2309   -1.4919    0.3687 C   0  0  0  0  0  0  0  0  0  0  0  0
   -0.7821   -2.2120   -0.7950 H   0  0  0  0  0  0  0  0  0  0  0  0
    0.1692   -4.4239   -0.5729 H   0  0  0  0  0  0  0  0  0  0  0  0
    2.5375   -4.7191    0.0337 H   0  0  0  0  0  0  0  0  0  0  0  0
    3.9770   -2.7656    0.3704 H   0  0  0  0  0  0  0  0  0  0  0  0
   -1.5806   -1.6515    0.5450 H   0  0  0  0  0  0  0  0  0  0  0  0
   -3.2899    2.9778   -0.3281 H   0  0  0  0  0  0  0  0  0  0  0  0
   -1.0058    3.8227   -0.1839 H   0  0  0  0  0  0  0  0  0  0  0  0
    1.3534    3.4365   -0.0615 H   0  0  0  0  0  0  0  0  0  0  0  0
    3.1266    3.2386   -0.0416 H   0  0  0  0  0  0  0  0  0  0  0  0
    5.5471    2.9489    0.1010 H   0  0  0  0  0  0  0  0  0  0  0  0
    6.5312    0.6984    0.2546 H   0  0  0  0  0  0  0  0  0  0  0  0
    5.0998   -1.2856    0.2381 H   0  0  0  0  0  0  0  0  0  0  0  0
   -5.6085    2.0905   -0.3375 H   0  0  0  0  0  0  0  0  0  0  0  0
   -7.1100    0.2027   -0.0640 H   0  0  0  0  0  0  0  0  0  0  0  0
   -6.2635   -2.0476    0.3899 H   0  0  0  0  0  0  0  0  0  0  0  0
   -3.8842   -2.4941    0.5720 H   0  0  0  0  0  0  0  0  0  0  0  0
  1  2  2  0  0  0  0
  2  3  1  0  0  0  0
  3  4  2  0  0  0  0
  4  5  1  0  0  0  0
  5  6  2  0  0  0  0
  1  6  1  0  0  0  0
  6  7  1  0  0  0  0
  7  8  2  0  0  0  0
  8  9  1  0  0  0  0
  9 10  2  0  0  0  0
 10 11  1  0  0  0  0
 11 12  2  0  0  0  0
 12 13  1  0  0  0  0
  8 13  1  0  0  0  0
 13 14  2  0  0  0  0
 14 15  1  0  0  0  0
 15 16  2  0  0  0  0
  7 16  1  0  0  0  0
 16 17  1  0  0  0  0
 17 18  2  0  0  0  0
 18 19  1  0  0  0  0
 19 20  2  0  0  0  0
 20 21  1  0  0  0  0
 21 22  2  0  0  0  0
  5 22  1  0  0  0  0
 17 22  1  0  0  0  0
 11 23  1  0  0  0  0
 23 24  2  0  0  0  0
 24 25  1  0  0  0  0
 25 26  2  0  0  0  0
 10 26  1  0  0  0  0
  1 27  1  0  0  0  0
  2 28  1  0  0  0  0
  3 29  1  0  0  0  0
  4 30  1  0  0  0  0
  9 31  1  0  0  0  0
 12 32  1  0  0  0  0
 14 33  1  0  0  0  0
 15 34  1  0  0  0  0
 18 35  1  0  0  0  0
 19 36  1  0  0  0  0
 20 37  1  0  0  0  0
 21 38  1  0  0  0  0
 23 39  1  0  0  0  0
 24 40  1  0  0  0  0
 25 41  1  0  0  0  0
 26 42  1  0  0  0  0
M  END
$$$$
