C32H16
APtclcactv01171906273D 0   0.00000     0.00000
 
 48 56  0  0  0  0  0  0  0  0999 V2000
   -3.3683   -2.8158    0.0002 C   0  0  0  0  0  0  0  0  0  0  0  0
   -4.7536   -2.8346    0.0011 C   0  0  0  0  0  0  0  0  0  0  0  0
   -5.4835   -1.6658    0.0014 C   0  0  0  0  0  0  0  0  0  0  0  0
   -4.8288   -0.4278    0.0009 C   0  0  0  0  0  0  0  0  0  0  0  0
   -3.4160   -0.3973    0.0000 C   0  0  0  0  0  0  0  0  0  0  0  0
   -2.7489    0.8472   -0.0005 C   0  0  0  0  0  0  0  0  0  0  0  0
   -1.3389    0.9061   -0.0007 C   0  0  0  0  0  0  0  0  0  0  0  0
   -0.6949    2.1634   -0.0007 C   0  0  0  0  0  0  0  0  0  0  0  0
    0.7122    2.2430   -0.0003 C   0  0  0  0  0  0  0  0  0  0  0  0
    1.4775    1.0966   -0.0007 C   0  0  0  0  0  0  0  0  0  0  0  0
    2.9512    1.1566    0.0000 C   0  0  0  0  0  0  0  0  0  0  0  0
    3.6968   -0.0428    0.0001 C   0  0  0  0  0  0  0  0  0  0  0  0
    5.1107    0.0246    0.0009 C   0  0  0  0  0  0  0  0  0  0  0  0
    5.8584   -1.1661    0.0010 C   0  0  0  0  0  0  0  0  0  0  0  0
    5.2234   -2.3728    0.0001 C   0  0  0  0  0  0  0  0  0  0  0  0
    3.8372   -2.4559   -0.0008 C   0  0  0  0  0  0  0  0  0  0  0  0
    3.0614   -1.3046   -0.0012 C   0  0  0  0  0  0  0  0  0  0  0  0
    1.5894   -1.3950   -0.0016 C   0  0  0  0  0  0  0  0  0  0  0  0
    0.8248   -0.2131   -0.0013 C   0  0  0  0  0  0  0  0  0  0  0  0
   -0.5810   -0.2863   -0.0005 C   0  0  0  0  0  0  0  0  0  0  0  0
   -1.2140   -1.5494    0.0005 C   0  0  0  0  0  0  0  0  0  0  0  0
   -2.6849   -1.6055   -0.0003 C   0  0  0  0  0  0  0  0  0  0  0  0
   -0.4370   -2.7049    0.0006 C   0  0  0  0  0  0  0  0  0  0  0  0
    0.9417   -2.6294   -0.0017 C   0  0  0  0  0  0  0  0  0  0  0  0
    5.7430    1.2797    0.0012 C   0  0  0  0  0  0  0  0  0  0  0  0
    5.0001    2.4233    0.0012 C   0  0  0  0  0  0  0  0  0  0  0  0
    3.6122    2.3756    0.0012 C   0  0  0  0  0  0  0  0  0  0  0  0
   -1.4739    3.3389   -0.0008 C   0  0  0  0  0  0  0  0  0  0  0  0
   -2.8299    3.2798   -0.0005 C   0  0  0  0  0  0  0  0  0  0  0  0
   -3.4997    2.0425   -0.0003 C   0  0  0  0  0  0  0  0  0  0  0  0
   -4.9109    1.9780    0.0006 C   0  0  0  0  0  0  0  0  0  0  0  0
   -5.5531    0.7866    0.0001 C   0  0  0  0  0  0  0  0  0  0  0  0
   -2.8176   -3.7448    0.0045 H   0  0  0  0  0  0  0  0  0  0  0  0
   -5.2708   -3.7826    0.0011 H   0  0  0  0  0  0  0  0  0  0  0  0
   -6.5628   -1.7046    0.0017 H   0  0  0  0  0  0  0  0  0  0  0  0
    1.1945    3.2093    0.0001 H   0  0  0  0  0  0  0  0  0  0  0  0
    6.9376   -1.1249    0.0014 H   0  0  0  0  0  0  0  0  0  0  0  0
    5.8091   -3.2802   -0.0002 H   0  0  0  0  0  0  0  0  0  0  0  0
    3.3587   -3.4241   -0.0015 H   0  0  0  0  0  0  0  0  0  0  0  0
   -0.9185   -3.6717    0.0015 H   0  0  0  0  0  0  0  0  0  0  0  0
    1.5255   -3.5380   -0.0020 H   0  0  0  0  0  0  0  0  0  0  0  0
    6.8214    1.3388    0.0019 H   0  0  0  0  0  0  0  0  0  0  0  0
    5.4990    3.3812    0.0017 H   0  0  0  0  0  0  0  0  0  0  0  0
    3.0439    3.2940    0.0008 H   0  0  0  0  0  0  0  0  0  0  0  0
   -0.9839    4.3013   -0.0006 H   0  0  0  0  0  0  0  0  0  0  0  0
   -3.4027    4.1954   -0.0005 H   0  0  0  0  0  0  0  0  0  0  0  0
   -5.4856    2.8925    0.0011 H   0  0  0  0  0  0  0  0  0  0  0  0
   -6.6329    0.7632    0.0009 H   0  0  0  0  0  0  0  0  0  0  0  0
  1  2  2  0  0  0  0
  2  3  1  0  0  0  0
  3  4  2  0  0  0  0
  4  5  1  0  0  0  0
  5  6  1  0  0  0  0
  6  7  2  0  0  0  0
  7  8  1  0  0  0  0
  8  9  1  0  0  0  0
  9 10  2  0  0  0  0
 10 11  1  0  0  0  0
 11 12  2  0  0  0  0
 12 13  1  0  0  0  0
 13 14  1  0  0  0  0
 14 15  2  0  0  0  0
 15 16  1  0  0  0  0
 16 17  2  0  0  0  0
 12 17  1  0  0  0  0
 17 18  1  0  0  0  0
 18 19  2  0  0  0  0
 10 19  1  0  0  0  0
 19 20  1  0  0  0  0
  7 20  1  0  0  0  0
 20 21  2  0  0  0  0
 21 22  1  0  0  0  0
  1 22  1  0  0  0  0
  5 22  2  0  0  0  0
 21 23  1  0  0  0  0
 23 24  2  0  0  0  0
 18 24  1  0  0  0  0
 13 25  2  0  0  0  0
 25 26  1  0  0  0  0
 26 27  2  0  0  0  0
 11 27  1  0  0  0  0
  8 28  2  0  0  0  0
 28 29  1  0  0  0  0
 29 30  2  0  0  0  0
  6 30  1  0  0  0  0
 30 31  1  0  0  0  0
 31 32  2  0  0  0  0
  4 32  1  0  0  0  0
  1 33  1  0  0  0  0
  2 34  1  0  0  0  0
  3 35  1  0  0  0  0
  9 36  1  0  0  0  0
 14 37  1  0  0  0  0
 15 38  1  0  0  0  0
 16 39  1  0  0  0  0
 23 40  1  0  0  0  0
 24 41  1  0  0  0  0
 25 42  1  0  0  0  0
 26 43  1  0  0  0  0
 27 44  1  0  0  0  0
 28 45  1  0  0  0  0
 29 46  1  0  0  0  0
 31 47  1  0  0  0  0
 32 48  1  0  0  0  0
M  END
$$$$
