C30H18
APtclcactv01171906263D 0   0.00000     0.00000
 
 48 54  0  0  0  0  0  0  0  0999 V2000
   -7.0871    1.0435   -0.0035 C   0  0  0  0  0  0  0  0  0  0  0  0
   -7.7659   -0.1404   -0.0050 C   0  0  0  0  0  0  0  0  0  0  0  0
   -7.0853   -1.3515   -0.0042 C   0  0  0  0  0  0  0  0  0  0  0  0
   -5.7195   -1.3851   -0.0019 C   0  0  0  0  0  0  0  0  0  0  0  0
   -4.9970   -0.1901   -0.0003 C   0  0  0  0  0  0  0  0  0  0  0  0
   -5.6854    1.0419   -0.0011 C   0  0  0  0  0  0  0  0  0  0  0  0
   -4.9383    2.2951    0.0000 C   0  0  0  0  0  0  0  0  0  0  0  0
   -3.5897    2.2972    0.0017 C   0  0  0  0  0  0  0  0  0  0  0  0
   -2.8378    1.0458    0.0020 C   0  0  0  0  0  0  0  0  0  0  0  0
   -1.4414    1.0628    0.0027 C   0  0  0  0  0  0  0  0  0  0  0  0
   -0.7358   -0.1322    0.0026 C   0  0  0  0  0  0  0  0  0  0  0  0
    0.7359   -0.1319    0.0027 C   0  0  0  0  0  0  0  0  0  0  0  0
    1.4413    1.0635    0.0027 C   0  0  0  0  0  0  0  0  0  0  0  0
    2.8378    1.0469    0.0021 C   0  0  0  0  0  0  0  0  0  0  0  0
    3.5901    2.2979    0.0017 C   0  0  0  0  0  0  0  0  0  0  0  0
    4.9388    2.2954   -0.0000 C   0  0  0  0  0  0  0  0  0  0  0  0
    5.6857    1.0421   -0.0010 C   0  0  0  0  0  0  0  0  0  0  0  0
    4.9969   -0.1896   -0.0001 C   0  0  0  0  0  0  0  0  0  0  0  0
    3.5281   -0.1913    0.0013 C   0  0  0  0  0  0  0  0  0  0  0  0
    2.8211   -1.3874    0.0023 C   0  0  0  0  0  0  0  0  0  0  0  0
    1.4259   -1.3698    0.0021 C   0  0  0  0  0  0  0  0  0  0  0  0
    0.6741   -2.6223    0.0034 C   0  0  0  0  0  0  0  0  0  0  0  0
   -0.6734   -2.6225    0.0027 C   0  0  0  0  0  0  0  0  0  0  0  0
   -1.4256   -1.3702    0.0020 C   0  0  0  0  0  0  0  0  0  0  0  0
   -2.8208   -1.3881    0.0007 C   0  0  0  0  0  0  0  0  0  0  0  0
   -3.5282   -0.1923    0.0016 C   0  0  0  0  0  0  0  0  0  0  0  0
    5.7184   -1.3852   -0.0020 C   0  0  0  0  0  0  0  0  0  0  0  0
    7.0842   -1.3524   -0.0048 C   0  0  0  0  0  0  0  0  0  0  0  0
    7.7654   -0.1416   -0.0053 C   0  0  0  0  0  0  0  0  0  0  0  0
    7.0874    1.0428   -0.0034 C   0  0  0  0  0  0  0  0  0  0  0  0
   -7.6280    1.9783   -0.0086 H   0  0  0  0  0  0  0  0  0  0  0  0
   -8.8459   -0.1357   -0.0064 H   0  0  0  0  0  0  0  0  0  0  0  0
   -7.6421   -2.2769   -0.0050 H   0  0  0  0  0  0  0  0  0  0  0  0
   -5.2005   -2.3323   -0.0009 H   0  0  0  0  0  0  0  0  0  0  0  0
   -5.4725    3.2337   -0.0009 H   0  0  0  0  0  0  0  0  0  0  0  0
   -3.0586    3.2376    0.0025 H   0  0  0  0  0  0  0  0  0  0  0  0
   -0.9117    2.0040    0.0029 H   0  0  0  0  0  0  0  0  0  0  0  0
    0.9114    2.0045    0.0029 H   0  0  0  0  0  0  0  0  0  0  0  0
    3.0594    3.2385    0.0024 H   0  0  0  0  0  0  0  0  0  0  0  0
    5.4732    3.2339   -0.0010 H   0  0  0  0  0  0  0  0  0  0  0  0
    3.3504   -2.3288    0.0018 H   0  0  0  0  0  0  0  0  0  0  0  0
    1.2062   -3.5621    0.0045 H   0  0  0  0  0  0  0  0  0  0  0  0
   -1.2051   -3.5625    0.0033 H   0  0  0  0  0  0  0  0  0  0  0  0
   -3.3499   -2.3297    0.0006 H   0  0  0  0  0  0  0  0  0  0  0  0
    5.1988   -2.3320   -0.0009 H   0  0  0  0  0  0  0  0  0  0  0  0
    7.6405   -2.2781   -0.0063 H   0  0  0  0  0  0  0  0  0  0  0  0
    8.8454   -0.1375   -0.0072 H   0  0  0  0  0  0  0  0  0  0  0  0
    7.6289    1.9772   -0.0042 H   0  0  0  0  0  0  0  0  0  0  0  0
  1  2  2  0  0  0  0
  2  3  1  0  0  0  0
  3  4  2  0  0  0  0
  4  5  1  0  0  0  0
  5  6  2  0  0  0  0
  1  6  1  0  0  0  0
  6  7  1  0  0  0  0
  7  8  2  0  0  0  0
  8  9  1  0  0  0  0
  9 10  2  0  0  0  0
 10 11  1  0  0  0  0
 11 12  2  0  0  0  0
 12 13  1  0  0  0  0
 13 14  2  0  0  0  0
 14 15  1  0  0  0  0
 15 16  2  0  0  0  0
 16 17  1  0  0  0  0
 17 18  2  0  0  0  0
 18 19  1  0  0  0  0
 14 19  1  0  0  0  0
 19 20  2  0  0  0  0
 20 21  1  0  0  0  0
 12 21  1  0  0  0  0
 21 22  2  0  0  0  0
 22 23  1  0  0  0  0
 23 24  2  0  0  0  0
 11 24  1  0  0  0  0
 24 25  1  0  0  0  0
 25 26  2  0  0  0  0
  5 26  1  0  0  0  0
  9 26  1  0  0  0  0
 18 27  1  0  0  0  0
 27 28  2  0  0  0  0
 28 29  1  0  0  0  0
 29 30  2  0  0  0  0
 17 30  1  0  0  0  0
  1 31  1  0  0  0  0
  2 32  1  0  0  0  0
  3 33  1  0  0  0  0
  4 34  1  0  0  0  0
  7 35  1  0  0  0  0
  8 36  1  0  0  0  0
 10 37  1  0  0  0  0
 13 38  1  0  0  0  0
 15 39  1  0  0  0  0
 16 40  1  0  0  0  0
 20 41  1  0  0  0  0
 22 42  1  0  0  0  0
 23 43  1  0  0  0  0
 25 44  1  0  0  0  0
 27 45  1  0  0  0  0
 28 46  1  0  0  0  0
 29 47  1  0  0  0  0
 30 48  1  0  0  0  0
M  END
$$$$
