C26H16
APtclcactv01171906263D 0   0.00000     0.00000
 
 42 47  0  0  0  0  0  0  0  0999 V2000
   -5.5647    0.0563   -0.2014 C   0  0  0  0  0  0  0  0  0  0  0  0
   -5.7127   -1.2824    0.0065 C   0  0  0  0  0  0  0  0  0  0  0  0
   -4.6110   -2.0808    0.2924 C   0  0  0  0  0  0  0  0  0  0  0  0
   -3.3544   -1.5487    0.3406 C   0  0  0  0  0  0  0  0  0  0  0  0
   -3.1585   -0.1883    0.0949 C   0  0  0  0  0  0  0  0  0  0  0  0
   -4.2917    0.6382   -0.1167 C   0  0  0  0  0  0  0  0  0  0  0  0
   -4.1335    2.0385   -0.2051 C   0  0  0  0  0  0  0  0  0  0  0  0
   -2.9185    2.6119   -0.0732 C   0  0  0  0  0  0  0  0  0  0  0  0
   -1.7576    1.8321    0.1080 C   0  0  0  0  0  0  0  0  0  0  0  0
   -0.5196    2.4358    0.4018 C   0  0  0  0  0  0  0  0  0  0  0  0
    0.6178    1.7014    0.4363 C   0  0  0  0  0  0  0  0  0  0  0  0
    0.6181    0.3366    0.1048 C   0  0  0  0  0  0  0  0  0  0  0  0
    1.8329   -0.4162   -0.0116 C   0  0  0  0  0  0  0  0  0  0  0  0
    3.1598    0.1899   -0.0626 C   0  0  0  0  0  0  0  0  0  0  0  0
    4.2906   -0.6443    0.1239 C   0  0  0  0  0  0  0  0  0  0  0  0
    4.1256   -2.0436    0.2154 C   0  0  0  0  0  0  0  0  0  0  0  0
    2.9068   -2.6097    0.0884 C   0  0  0  0  0  0  0  0  0  0  0  0
    1.7507   -1.8239   -0.0982 C   0  0  0  0  0  0  0  0  0  0  0  0
    0.5152   -2.4231   -0.4122 C   0  0  0  0  0  0  0  0  0  0  0  0
   -0.6199   -1.6863   -0.4555 C   0  0  0  0  0  0  0  0  0  0  0  0
   -0.6190   -0.3226   -0.1193 C   0  0  0  0  0  0  0  0  0  0  0  0
   -1.8354    0.4240    0.0198 C   0  0  0  0  0  0  0  0  0  0  0  0
    5.5678   -0.0697    0.2004 C   0  0  0  0  0  0  0  0  0  0  0  0
    5.7226    1.2667   -0.0173 C   0  0  0  0  0  0  0  0  0  0  0  0
    4.6241    2.0676   -0.3088 C   0  0  0  0  0  0  0  0  0  0  0  0
    3.3639    1.5434   -0.3446 C   0  0  0  0  0  0  0  0  0  0  0  0
   -6.4258    0.6685   -0.4263 H   0  0  0  0  0  0  0  0  0  0  0  0
   -6.6948   -1.7267   -0.0529 H   0  0  0  0  0  0  0  0  0  0  0  0
   -4.7506   -3.1353    0.4799 H   0  0  0  0  0  0  0  0  0  0  0  0
   -2.5258   -2.1871    0.6095 H   0  0  0  0  0  0  0  0  0  0  0  0
   -4.9981    2.6601   -0.3814 H   0  0  0  0  0  0  0  0  0  0  0  0
   -2.8352    3.6879   -0.1075 H   0  0  0  0  0  0  0  0  0  0  0  0
   -0.4764    3.4956    0.6026 H   0  0  0  0  0  0  0  0  0  0  0  0
    1.5287    2.1773    0.7673 H   0  0  0  0  0  0  0  0  0  0  0  0
    4.9871   -2.6698    0.3900 H   0  0  0  0  0  0  0  0  0  0  0  0
    2.8165   -3.6851    0.1309 H   0  0  0  0  0  0  0  0  0  0  0  0
    0.4728   -3.4812   -0.6216 H   0  0  0  0  0  0  0  0  0  0  0  0
   -1.5289   -2.1581   -0.7974 H   0  0  0  0  0  0  0  0  0  0  0  0
    6.4254   -0.6848    0.4308 H   0  0  0  0  0  0  0  0  0  0  0  0
    6.7063    1.7070    0.0389 H   0  0  0  0  0  0  0  0  0  0  0  0
    4.7695    3.1188   -0.5109 H   0  0  0  0  0  0  0  0  0  0  0  0
    2.5390    2.1785   -0.6309 H   0  0  0  0  0  0  0  0  0  0  0  0
  1  2  2  0  0  0  0
  2  3  1  0  0  0  0
  3  4  2  0  0  0  0
  4  5  1  0  0  0  0
  5  6  1  0  0  0  0
  1  6  1  0  0  0  0
  6  7  2  0  0  0  0
  7  8  1  0  0  0  0
  8  9  2  0  0  0  0
  9 10  1  0  0  0  0
 10 11  2  0  0  0  0
 11 12  1  0  0  0  0
 12 13  2  0  0  0  0
 13 14  1  0  0  0  0
 14 15  2  0  0  0  0
 15 16  1  0  0  0  0
 16 17  2  0  0  0  0
 17 18  1  0  0  0  0
 13 18  1  0  0  0  0
 18 19  2  0  0  0  0
 19 20  1  0  0  0  0
 20 21  2  0  0  0  0
 12 21  1  0  0  0  0
 21 22  1  0  0  0  0
  5 22  2  0  0  0  0
  9 22  1  0  0  0  0
 15 23  1  0  0  0  0
 23 24  2  0  0  0  0
 24 25  1  0  0  0  0
 25 26  2  0  0  0  0
 14 26  1  0  0  0  0
  1 27  1  0  0  0  0
  2 28  1  0  0  0  0
  3 29  1  0  0  0  0
  4 30  1  0  0  0  0
  7 31  1  0  0  0  0
  8 32  1  0  0  0  0
 10 33  1  0  0  0  0
 11 34  1  0  0  0  0
 16 35  1  0  0  0  0
 17 36  1  0  0  0  0
 19 37  1  0  0  0  0
 20 38  1  0  0  0  0
 23 39  1  0  0  0  0
 24 40  1  0  0  0  0
 25 41  1  0  0  0  0
 26 42  1  0  0  0  0
M  END
$$$$
