C28H16
APtclcactv01171906263D 0   0.00000     0.00000
 
 44 50  0  0  0  0  0  0  0  0999 V2000
   -4.5336   -1.7814   -0.0005 C   0  0  0  0  0  0  0  0  0  0  0  0
   -5.8945   -1.9041    0.0008 C   0  0  0  0  0  0  0  0  0  0  0  0
   -6.7102   -0.7792    0.0015 C   0  0  0  0  0  0  0  0  0  0  0  0
   -6.1731    0.4750    0.0010 C   0  0  0  0  0  0  0  0  0  0  0  0
   -4.7797    0.6344    0.0001 C   0  0  0  0  0  0  0  0  0  0  0  0
   -4.1949    1.9215    0.0000 C   0  0  0  0  0  0  0  0  0  0  0  0
   -2.8547    2.0826   -0.0007 C   0  0  0  0  0  0  0  0  0  0  0  0
   -1.9756    0.9793   -0.0008 C   0  0  0  0  0  0  0  0  0  0  0  0
   -0.5758    1.1896   -0.0009 C   0  0  0  0  0  0  0  0  0  0  0  0
   -0.0229    2.4883   -0.0002 C   0  0  0  0  0  0  0  0  0  0  0  0
    1.3153    2.6923    0.0004 C   0  0  0  0  0  0  0  0  0  0  0  0
    2.2167    1.5977   -0.0001 C   0  0  0  0  0  0  0  0  0  0  0  0
    3.5923    1.7771    0.0007 C   0  0  0  0  0  0  0  0  0  0  0  0
    4.4590    0.6734    0.0003 C   0  0  0  0  0  0  0  0  0  0  0  0
    3.9571   -0.6536   -0.0002 C   0  0  0  0  0  0  0  0  0  0  0  0
    2.5135   -0.8812   -0.0002 C   0  0  0  0  0  0  0  0  0  0  0  0
    1.6679    0.2415   -0.0009 C   0  0  0  0  0  0  0  0  0  0  0  0
    0.2729    0.0677   -0.0010 C   0  0  0  0  0  0  0  0  0  0  0  0
   -0.2742   -1.2872   -0.0004 C   0  0  0  0  0  0  0  0  0  0  0  0
   -1.6579   -1.4527    0.0001 C   0  0  0  0  0  0  0  0  0  0  0  0
   -2.4944   -0.3374   -0.0005 C   0  0  0  0  0  0  0  0  0  0  0  0
   -3.9546   -0.5116   -0.0006 C   0  0  0  0  0  0  0  0  0  0  0  0
    0.6219   -2.3809    0.0001 C   0  0  0  0  0  0  0  0  0  0  0  0
    1.9629   -2.1769   -0.0012 C   0  0  0  0  0  0  0  0  0  0  0  0
    4.8528   -1.7302   -0.0002 C   0  0  0  0  0  0  0  0  0  0  0  0
    6.1953   -1.4964    0.0003 C   0  0  0  0  0  0  0  0  0  0  0  0
    6.6937   -0.1955    0.0012 C   0  0  0  0  0  0  0  0  0  0  0  0
    5.8547    0.8746    0.0008 C   0  0  0  0  0  0  0  0  0  0  0  0
   -3.9092   -2.6626    0.0031 H   0  0  0  0  0  0  0  0  0  0  0  0
   -6.3415   -2.8873    0.0009 H   0  0  0  0  0  0  0  0  0  0  0  0
   -7.7835   -0.8992    0.0022 H   0  0  0  0  0  0  0  0  0  0  0  0
   -6.8181    1.3412    0.0009 H   0  0  0  0  0  0  0  0  0  0  0  0
   -4.8330    2.7929    0.0001 H   0  0  0  0  0  0  0  0  0  0  0  0
   -2.4449    3.0819   -0.0015 H   0  0  0  0  0  0  0  0  0  0  0  0
   -0.6849    3.3416   -0.0006 H   0  0  0  0  0  0  0  0  0  0  0  0
    1.7010    3.7011    0.0008 H   0  0  0  0  0  0  0  0  0  0  0  0
    4.0006    2.7770    0.0013 H   0  0  0  0  0  0  0  0  0  0  0  0
   -2.0825   -2.4457    0.0006 H   0  0  0  0  0  0  0  0  0  0  0  0
    0.2347   -3.3891    0.0004 H   0  0  0  0  0  0  0  0  0  0  0  0
    2.6250   -3.0301   -0.0007 H   0  0  0  0  0  0  0  0  0  0  0  0
    4.4802   -2.7439   -0.0002 H   0  0  0  0  0  0  0  0  0  0  0  0
    6.8817   -2.3302    0.0003 H   0  0  0  0  0  0  0  0  0  0  0  0
    7.7617   -0.0347    0.0020 H   0  0  0  0  0  0  0  0  0  0  0  0
    6.2566    1.8771    0.0015 H   0  0  0  0  0  0  0  0  0  0  0  0
  1  2  2  0  0  0  0
  2  3  1  0  0  0  0
  3  4  2  0  0  0  0
  4  5  1  0  0  0  0
  5  6  1  0  0  0  0
  6  7  2  0  0  0  0
  7  8  1  0  0  0  0
  8  9  2  0  0  0  0
  9 10  1  0  0  0  0
 10 11  2  0  0  0  0
 11 12  1  0  0  0  0
 12 13  1  0  0  0  0
 13 14  2  0  0  0  0
 14 15  1  0  0  0  0
 15 16  2  0  0  0  0
 16 17  1  0  0  0  0
 12 17  2  0  0  0  0
 17 18  1  0  0  0  0
  9 18  1  0  0  0  0
 18 19  2  0  0  0  0
 19 20  1  0  0  0  0
 20 21  2  0  0  0  0
  8 21  1  0  0  0  0
 21 22  1  0  0  0  0
  1 22  1  0  0  0  0
  5 22  2  0  0  0  0
 19 23  1  0  0  0  0
 23 24  2  0  0  0  0
 16 24  1  0  0  0  0
 15 25  1  0  0  0  0
 25 26  2  0  0  0  0
 26 27  1  0  0  0  0
 27 28  2  0  0  0  0
 14 28  1  0  0  0  0
  1 29  1  0  0  0  0
  2 30  1  0  0  0  0
  3 31  1  0  0  0  0
  4 32  1  0  0  0  0
  6 33  1  0  0  0  0
  7 34  1  0  0  0  0
 10 35  1  0  0  0  0
 11 36  1  0  0  0  0
 13 37  1  0  0  0  0
 20 38  1  0  0  0  0
 23 39  1  0  0  0  0
 24 40  1  0  0  0  0
 25 41  1  0  0  0  0
 26 42  1  0  0  0  0
 27 43  1  0  0  0  0
 28 44  1  0  0  0  0
M  END
$$$$
