C32H16
APtclcactv01171906243D 0   0.00000     0.00000
 
 48 56  0  0  0  0  0  0  0  0999 V2000
   -3.0596    3.5772    0.1520 C   0  0  0  0  0  0  0  0  0  0  0  0
   -3.8234    2.4691    0.2523 C   0  0  0  0  0  0  0  0  0  0  0  0
   -3.2029    1.1483    0.1626 C   0  0  0  0  0  0  0  0  0  0  0  0
   -1.7464    1.0520    0.0475 C   0  0  0  0  0  0  0  0  0  0  0  0
   -1.1359   -0.2127    0.0101 C   0  0  0  0  0  0  0  0  0  0  0  0
   -1.9318   -1.3755    0.0178 C   0  0  0  0  0  0  0  0  0  0  0  0
   -1.3335   -2.6559   -0.0353 C   0  0  0  0  0  0  0  0  0  0  0  0
    0.1343   -2.7871   -0.0788 C   0  0  0  0  0  0  0  0  0  0  0  0
    0.9421   -1.6319   -0.0490 C   0  0  0  0  0  0  0  0  0  0  0  0
    2.3450   -1.7539   -0.0611 C   0  0  0  0  0  0  0  0  0  0  0  0
    3.1730   -0.5433    0.0374 C   0  0  0  0  0  0  0  0  0  0  0  0
    2.5604    0.7253    0.1510 C   0  0  0  0  0  0  0  0  0  0  0  0
    1.1073    0.8531    0.0058 C   0  0  0  0  0  0  0  0  0  0  0  0
    0.4407    2.1475   -0.1502 C   0  0  0  0  0  0  0  0  0  0  0  0
    1.1429    3.3176   -0.4421 C   0  0  0  0  0  0  0  0  0  0  0  0
    0.5026    4.5399   -0.4708 C   0  0  0  0  0  0  0  0  0  0  0  0
   -0.8586    4.6376   -0.2586 C   0  0  0  0  0  0  0  0  0  0  0  0
   -1.6165    3.4827   -0.0536 C   0  0  0  0  0  0  0  0  0  0  0  0
   -0.9716    2.2239   -0.0446 C   0  0  0  0  0  0  0  0  0  0  0  0
    0.3231   -0.3092   -0.0213 C   0  0  0  0  0  0  0  0  0  0  0  0
    3.3715    1.8329    0.4169 C   0  0  0  0  0  0  0  0  0  0  0  0
    4.7319    1.7146    0.4205 C   0  0  0  0  0  0  0  0  0  0  0  0
    5.3364    0.4862    0.1933 C   0  0  0  0  0  0  0  0  0  0  0  0
    4.5659   -0.6396    0.0118 C   0  0  0  0  0  0  0  0  0  0  0  0
    2.9210   -3.0208   -0.1457 C   0  0  0  0  0  0  0  0  0  0  0  0
    2.1192   -4.1438   -0.1919 C   0  0  0  0  0  0  0  0  0  0  0  0
    0.7406   -4.0375   -0.1548 C   0  0  0  0  0  0  0  0  0  0  0  0
   -2.1439   -3.7837   -0.0443 C   0  0  0  0  0  0  0  0  0  0  0  0
   -3.5256   -3.6618    0.0039 C   0  0  0  0  0  0  0  0  0  0  0  0
   -4.1246   -2.4393    0.0675 C   0  0  0  0  0  0  0  0  0  0  0  0
   -3.3444   -1.2677    0.0849 C   0  0  0  0  0  0  0  0  0  0  0  0
   -3.9646   -0.0107    0.1733 C   0  0  0  0  0  0  0  0  0  0  0  0
   -3.5239    4.5496    0.2204 H   0  0  0  0  0  0  0  0  0  0  0  0
   -4.8897    2.5565    0.3966 H   0  0  0  0  0  0  0  0  0  0  0  0
    2.1877    3.2789   -0.7121 H   0  0  0  0  0  0  0  0  0  0  0  0
    1.0767    5.4345   -0.6612 H   0  0  0  0  0  0  0  0  0  0  0  0
   -1.3363    5.6052   -0.2505 H   0  0  0  0  0  0  0  0  0  0  0  0
    2.9360    2.7831    0.6871 H   0  0  0  0  0  0  0  0  0  0  0  0
    5.3436    2.5858    0.6024 H   0  0  0  0  0  0  0  0  0  0  0  0
    6.4124    0.4127    0.1568 H   0  0  0  0  0  0  0  0  0  0  0  0
    5.0439   -1.5938   -0.1546 H   0  0  0  0  0  0  0  0  0  0  0  0
    3.9948   -3.1307   -0.1734 H   0  0  0  0  0  0  0  0  0  0  0  0
    2.5753   -5.1204   -0.2564 H   0  0  0  0  0  0  0  0  0  0  0  0
    0.1371   -4.9325   -0.1844 H   0  0  0  0  0  0  0  0  0  0  0  0
   -1.7018   -4.7675   -0.0882 H   0  0  0  0  0  0  0  0  0  0  0  0
   -4.1367   -4.5520   -0.0097 H   0  0  0  0  0  0  0  0  0  0  0  0
   -5.2016   -2.3685    0.1039 H   0  0  0  0  0  0  0  0  0  0  0  0
   -5.0399    0.0528    0.2486 H   0  0  0  0  0  0  0  0  0  0  0  0
  1  2  2  0  0  0  0
  2  3  1  0  0  0  0
  3  4  2  0  0  0  0
  4  5  1  0  0  0  0
  5  6  2  0  0  0  0
  6  7  1  0  0  0  0
  7  8  1  0  0  0  0
  8  9  2  0  0  0  0
  9 10  1  0  0  0  0
 10 11  1  0  0  0  0
 11 12  2  0  0  0  0
 12 13  1  0  0  0  0
 13 14  1  0  0  0  0
 14 15  1  0  0  0  0
 15 16  2  0  0  0  0
 16 17  1  0  0  0  0
 17 18  2  0  0  0  0
  1 18  1  0  0  0  0
 18 19  1  0  0  0  0
  4 19  1  0  0  0  0
 14 19  2  0  0  0  0
 13 20  2  0  0  0  0
  9 20  1  0  0  0  0
  5 20  1  0  0  0  0
 12 21  1  0  0  0  0
 21 22  2  0  0  0  0
 22 23  1  0  0  0  0
 23 24  2  0  0  0  0
 11 24  1  0  0  0  0
 10 25  2  0  0  0  0
 25 26  1  0  0  0  0
 26 27  2  0  0  0  0
  8 27  1  0  0  0  0
  7 28  2  0  0  0  0
 28 29  1  0  0  0  0
 29 30  2  0  0  0  0
 30 31  1  0  0  0  0
  6 31  1  0  0  0  0
 31 32  2  0  0  0  0
  3 32  1  0  0  0  0
  1 33  1  0  0  0  0
  2 34  1  0  0  0  0
 15 35  1  0  0  0  0
 16 36  1  0  0  0  0
 17 37  1  0  0  0  0
 21 38  1  0  0  0  0
 22 39  1  0  0  0  0
 23 40  1  0  0  0  0
 24 41  1  0  0  0  0
 25 42  1  0  0  0  0
 26 43  1  0  0  0  0
 27 44  1  0  0  0  0
 28 45  1  0  0  0  0
 29 46  1  0  0  0  0
 30 47  1  0  0  0  0
 32 48  1  0  0  0  0
M  END
$$$$
