C22H12
APtclcactv01171906263D 0   0.00000     0.00000
 
 34 39  0  0  0  0  0  0  0  0999 V2000
    3.4777   -1.7958    0.0000 C   0  0  0  0  0  0  0  0  0  0  0  0
    2.1356   -1.3769   -0.0004 C   0  0  0  0  0  0  0  0  0  0  0  0
    1.0906   -2.3190   -0.0007 C   0  0  0  0  0  0  0  0  0  0  0  0
   -0.2312   -1.8990   -0.0009 C   0  0  0  0  0  0  0  0  0  0  0  0
   -0.5267   -0.4646   -0.0009 C   0  0  0  0  0  0  0  0  0  0  0  0
   -1.8553   -0.0128   -0.0000 C   0  0  0  0  0  0  0  0  0  0  0  0
   -2.9111   -0.9550    0.0003 C   0  0  0  0  0  0  0  0  0  0  0  0
   -4.2281   -0.4927    0.0013 C   0  0  0  0  0  0  0  0  0  0  0  0
   -4.4922    0.8664    0.0014 C   0  0  0  0  0  0  0  0  0  0  0  0
   -3.4774    1.7961    0.0009 C   0  0  0  0  0  0  0  0  0  0  0  0
   -2.1354    1.3767    0.0009 C   0  0  0  0  0  0  0  0  0  0  0  0
   -1.0905    2.3188   -0.0006 C   0  0  0  0  0  0  0  0  0  0  0  0
    0.2312    1.8986   -0.0009 C   0  0  0  0  0  0  0  0  0  0  0  0
    0.5267    0.4643   -0.0012 C   0  0  0  0  0  0  0  0  0  0  0  0
    1.8553    0.0126   -0.0000 C   0  0  0  0  0  0  0  0  0  0  0  0
    2.9108    0.9551    0.0011 C   0  0  0  0  0  0  0  0  0  0  0  0
    4.2280    0.4932    0.0024 C   0  0  0  0  0  0  0  0  0  0  0  0
    4.4923   -0.8659    0.0007 C   0  0  0  0  0  0  0  0  0  0  0  0
    2.6177    2.3860    0.0003 C   0  0  0  0  0  0  0  0  0  0  0  0
    1.3464    2.8439   -0.0028 C   0  0  0  0  0  0  0  0  0  0  0  0
   -2.6179   -2.3859   -0.0007 C   0  0  0  0  0  0  0  0  0  0  0  0
   -1.3467   -2.8440   -0.0006 C   0  0  0  0  0  0  0  0  0  0  0  0
    3.7130   -2.8499    0.0044 H   0  0  0  0  0  0  0  0  0  0  0  0
    1.3189   -3.3746   -0.0011 H   0  0  0  0  0  0  0  0  0  0  0  0
   -5.0453   -1.1988    0.0017 H   0  0  0  0  0  0  0  0  0  0  0  0
   -5.5178    1.2047    0.0014 H   0  0  0  0  0  0  0  0  0  0  0  0
   -3.7124    2.8502    0.0006 H   0  0  0  0  0  0  0  0  0  0  0  0
   -1.3187    3.3744   -0.0018 H   0  0  0  0  0  0  0  0  0  0  0  0
    5.0451    1.1994    0.0029 H   0  0  0  0  0  0  0  0  0  0  0  0
    5.5180   -1.2041    0.0019 H   0  0  0  0  0  0  0  0  0  0  0  0
    3.4342    3.0929    0.0014 H   0  0  0  0  0  0  0  0  0  0  0  0
    1.1545    3.9067   -0.0040 H   0  0  0  0  0  0  0  0  0  0  0  0
   -3.4345   -3.0928   -0.0002 H   0  0  0  0  0  0  0  0  0  0  0  0
   -1.1549   -3.9068   -0.0016 H   0  0  0  0  0  0  0  0  0  0  0  0
  1  2  2  0  0  0  0
  2  3  1  0  0  0  0
  3  4  2  0  0  0  0
  4  5  1  0  0  0  0
  5  6  1  0  0  0  0
  6  7  1  0  0  0  0
  7  8  2  0  0  0  0
  8  9  1  0  0  0  0
  9 10  2  0  0  0  0
 10 11  1  0  0  0  0
  6 11  2  0  0  0  0
 11 12  1  0  0  0  0
 12 13  2  0  0  0  0
 13 14  1  0  0  0  0
  5 14  2  0  0  0  0
 14 15  1  0  0  0  0
  2 15  1  0  0  0  0
 15 16  2  0  0  0  0
 16 17  1  0  0  0  0
 17 18  2  0  0  0  0
  1 18  1  0  0  0  0
 16 19  1  0  0  0  0
 19 20  2  0  0  0  0
 13 20  1  0  0  0  0
  7 21  1  0  0  0  0
 21 22  2  0  0  0  0
  4 22  1  0  0  0  0
  1 23  1  0  0  0  0
  3 24  1  0  0  0  0
  8 25  1  0  0  0  0
  9 26  1  0  0  0  0
 10 27  1  0  0  0  0
 12 28  1  0  0  0  0
 17 29  1  0  0  0  0
 18 30  1  0  0  0  0
 19 31  1  0  0  0  0
 20 32  1  0  0  0  0
 21 33  1  0  0  0  0
 22 34  1  0  0  0  0
M  END
$$$$
