C36H18
APtclcactv01171906273D 0   0.00000     0.00000
 
 54 63  0  0  0  0  0  0  0  0999 V2000
   -5.2990   -2.0915    0.1576 C   0  0  0  0  0  0  0  0  0  0  0  0
   -6.6560   -2.1780    0.0490 C   0  0  0  0  0  0  0  0  0  0  0  0
   -7.4330   -1.0328   -0.1062 C   0  0  0  0  0  0  0  0  0  0  0  0
   -6.8601    0.1992   -0.1599 C   0  0  0  0  0  0  0  0  0  0  0  0
   -5.4594    0.3271   -0.0669 C   0  0  0  0  0  0  0  0  0  0  0  0
   -4.8632    1.5950   -0.1460 C   0  0  0  0  0  0  0  0  0  0  0  0
   -3.4836    1.7357   -0.0949 C   0  0  0  0  0  0  0  0  0  0  0  0
   -2.8576    3.0035   -0.1838 C   0  0  0  0  0  0  0  0  0  0  0  0
   -1.5082    3.1073   -0.1614 C   0  0  0  0  0  0  0  0  0  0  0  0
   -0.6730    1.9769   -0.0524 C   0  0  0  0  0  0  0  0  0  0  0  0
    0.7380    2.1028   -0.0443 C   0  0  0  0  0  0  0  0  0  0  0  0
    1.5422    0.9390   -0.0188 C   0  0  0  0  0  0  0  0  0  0  0  0
    2.9494    1.0840    0.0130 C   0  0  0  0  0  0  0  0  0  0  0  0
    3.7882   -0.0487    0.0304 C   0  0  0  0  0  0  0  0  0  0  0  0
    5.1871    0.1127    0.1276 C   0  0  0  0  0  0  0  0  0  0  0  0
    6.0159   -1.0290    0.1982 C   0  0  0  0  0  0  0  0  0  0  0  0
    5.4923   -2.2732    0.1000 C   0  0  0  0  0  0  0  0  0  0  0  0
    4.1021   -2.4611   -0.0789 C   0  0  0  0  0  0  0  0  0  0  0  0
    3.2387   -1.3444   -0.0664 C   0  0  0  0  0  0  0  0  0  0  0  0
    1.8376   -1.5200   -0.1650 C   0  0  0  0  0  0  0  0  0  0  0  0
    0.9624   -0.3514   -0.0130 C   0  0  0  0  0  0  0  0  0  0  0  0
   -0.4276   -0.4674    0.1804 C   0  0  0  0  0  0  0  0  0  0  0  0
   -1.2393    0.6899    0.0656 C   0  0  0  0  0  0  0  0  0  0  0  0
   -2.6402    0.5503    0.0641 C   0  0  0  0  0  0  0  0  0  0  0  0
   -3.2219   -0.7188    0.2324 C   0  0  0  0  0  0  0  0  0  0  0  0
   -4.6724   -0.8408    0.1077 C   0  0  0  0  0  0  0  0  0  0  0  0
   -2.3960   -1.8163    0.5312 C   0  0  0  0  0  0  0  0  0  0  0  0
   -1.0434   -1.6824    0.5367 C   0  0  0  0  0  0  0  0  0  0  0  0
    1.3490   -2.7973   -0.4188 C   0  0  0  0  0  0  0  0  0  0  0  0
    2.2059   -3.8852   -0.4710 C   0  0  0  0  0  0  0  0  0  0  0  0
    3.5632   -3.7364   -0.2904 C   0  0  0  0  0  0  0  0  0  0  0  0
    5.7320    1.4091    0.1412 C   0  0  0  0  0  0  0  0  0  0  0  0
    4.9279    2.5023    0.0838 C   0  0  0  0  0  0  0  0  0  0  0  0
    3.5286    2.3707    0.0231 C   0  0  0  0  0  0  0  0  0  0  0  0
    2.6932    3.5069   -0.0290 C   0  0  0  0  0  0  0  0  0  0  0  0
    1.3456    3.3732   -0.0604 C   0  0  0  0  0  0  0  0  0  0  0  0
   -4.7118   -2.9896    0.2774 H   0  0  0  0  0  0  0  0  0  0  0  0
   -7.1321   -3.1469    0.0809 H   0  0  0  0  0  0  0  0  0  0  0  0
   -8.5061   -1.1256   -0.1853 H   0  0  0  0  0  0  0  0  0  0  0  0
   -7.4783    1.0783   -0.2722 H   0  0  0  0  0  0  0  0  0  0  0  0
   -5.4853    2.4723   -0.2460 H   0  0  0  0  0  0  0  0  0  0  0  0
   -3.4611    3.8950   -0.2682 H   0  0  0  0  0  0  0  0  0  0  0  0
   -1.0656    4.0895   -0.2298 H   0  0  0  0  0  0  0  0  0  0  0  0
    7.0804   -0.9066    0.3319 H   0  0  0  0  0  0  0  0  0  0  0  0
    6.1436   -3.1323    0.1614 H   0  0  0  0  0  0  0  0  0  0  0  0
   -2.8363   -2.7752    0.7601 H   0  0  0  0  0  0  0  0  0  0  0  0
   -0.4438   -2.5173    0.8674 H   0  0  0  0  0  0  0  0  0  0  0  0
    0.2999   -2.9544   -0.6210 H   0  0  0  0  0  0  0  0  0  0  0  0
    1.8005   -4.8689   -0.6575 H   0  0  0  0  0  0  0  0  0  0  0  0
    4.2104   -4.6002   -0.3104 H   0  0  0  0  0  0  0  0  0  0  0  0
    6.8030    1.5367    0.1957 H   0  0  0  0  0  0  0  0  0  0  0  0
    5.3692    3.4883    0.0832 H   0  0  0  0  0  0  0  0  0  0  0  0
    3.1330    4.4931   -0.0467 H   0  0  0  0  0  0  0  0  0  0  0  0
    0.7328    4.2614   -0.0962 H   0  0  0  0  0  0  0  0  0  0  0  0
  1  2  2  0  0  0  0
  2  3  1  0  0  0  0
  3  4  2  0  0  0  0
  4  5  1  0  0  0  0
  5  6  2  0  0  0  0
  6  7  1  0  0  0  0
  7  8  2  0  0  0  0
  8  9  1  0  0  0  0
  9 10  2  0  0  0  0
 10 11  1  0  0  0  0
 11 12  2  0  0  0  0
 12 13  1  0  0  0  0
 13 14  2  0  0  0  0
 14 15  1  0  0  0  0
 15 16  1  0  0  0  0
 16 17  2  0  0  0  0
 17 18  1  0  0  0  0
 18 19  2  0  0  0  0
 14 19  1  0  0  0  0
 19 20  1  0  0  0  0
 20 21  1  0  0  0  0
 12 21  1  0  0  0  0
 21 22  2  0  0  0  0
 22 23  1  0  0  0  0
 10 23  1  0  0  0  0
 23 24  2  0  0  0  0
  7 24  1  0  0  0  0
 24 25  1  0  0  0  0
 25 26  2  0  0  0  0
  1 26  1  0  0  0  0
  5 26  1  0  0  0  0
 25 27  1  0  0  0  0
 27 28  2  0  0  0  0
 22 28  1  0  0  0  0
 20 29  2  0  0  0  0
 29 30  1  0  0  0  0
 30 31  2  0  0  0  0
 18 31  1  0  0  0  0
 15 32  2  0  0  0  0
 32 33  1  0  0  0  0
 33 34  2  0  0  0  0
 13 34  1  0  0  0  0
 34 35  1  0  0  0  0
 35 36  2  0  0  0  0
 11 36  1  0  0  0  0
  1 37  1  0  0  0  0
  2 38  1  0  0  0  0
  3 39  1  0  0  0  0
  4 40  1  0  0  0  0
  6 41  1  0  0  0  0
  8 42  1  0  0  0  0
  9 43  1  0  0  0  0
 16 44  1  0  0  0  0
 17 45  1  0  0  0  0
 27 46  1  0  0  0  0
 28 47  1  0  0  0  0
 29 48  1  0  0  0  0
 30 49  1  0  0  0  0
 31 50  1  0  0  0  0
 32 51  1  0  0  0  0
 33 52  1  0  0  0  0
 35 53  1  0  0  0  0
 36 54  1  0  0  0  0
M  END
$$$$
