C16H10
APtclcactv01171906273D 0   0.00000     0.00000
 
 26 29  0  0  0  0  0  0  0  0999 V2000
   -0.7721   -2.3704    0.0004 C   0  0  0  0  0  0  0  0  0  0  0  0
   -2.1667   -2.3970    0.0011 C   0  0  0  0  0  0  0  0  0  0  0  0
   -2.9453   -1.2349    0.0007 C   0  0  0  0  0  0  0  0  0  0  0  0
   -2.3022   -0.0000   -0.0002 C   0  0  0  0  0  0  0  0  0  0  0  0
   -2.9453    1.2348   -0.0007 C   0  0  0  0  0  0  0  0  0  0  0  0
   -2.1667    2.3970   -0.0006 C   0  0  0  0  0  0  0  0  0  0  0  0
   -0.7722    2.3704   -0.0004 C   0  0  0  0  0  0  0  0  0  0  0  0
   -0.0870    1.1561   -0.0002 C   0  0  0  0  0  0  0  0  0  0  0  0
    1.3245    0.7420    0.0006 C   0  0  0  0  0  0  0  0  0  0  0  0
    2.4612    1.3952    0.0023 C   0  0  0  0  0  0  0  0  0  0  0  0
    3.7372    0.6581    0.0010 C   0  0  0  0  0  0  0  0  0  0  0  0
    3.7372   -0.6581   -0.0010 C   0  0  0  0  0  0  0  0  0  0  0  0
    2.4612   -1.3952   -0.0018 C   0  0  0  0  0  0  0  0  0  0  0  0
    1.3245   -0.7420   -0.0009 C   0  0  0  0  0  0  0  0  0  0  0  0
   -0.0870   -1.1561   -0.0002 C   0  0  0  0  0  0  0  0  0  0  0  0
   -0.8392    0.0000   -0.0003 C   0  0  0  0  0  0  0  0  0  0  0  0
   -0.2186   -3.2978    0.0048 H   0  0  0  0  0  0  0  0  0  0  0  0
   -2.6661   -3.3546    0.0016 H   0  0  0  0  0  0  0  0  0  0  0  0
   -4.0237   -1.2943    0.0008 H   0  0  0  0  0  0  0  0  0  0  0  0
   -4.0237    1.2943   -0.0014 H   0  0  0  0  0  0  0  0  0  0  0  0
   -2.6662    3.3546   -0.0012 H   0  0  0  0  0  0  0  0  0  0  0  0
   -0.2187    3.2978   -0.0007 H   0  0  0  0  0  0  0  0  0  0  0  0
    2.4624    2.4752    0.0042 H   0  0  0  0  0  0  0  0  0  0  0  0
    4.6726    1.1979    0.0013 H   0  0  0  0  0  0  0  0  0  0  0  0
    4.6726   -1.1979   -0.0025 H   0  0  0  0  0  0  0  0  0  0  0  0
    2.4624   -2.4752   -0.0034 H   0  0  0  0  0  0  0  0  0  0  0  0
  1  2  2  0  0  0  0
  2  3  1  0  0  0  0
  3  4  2  0  0  0  0
  4  5  1  0  0  0  0
  5  6  2  0  0  0  0
  6  7  1  0  0  0  0
  7  8  2  0  0  0  0
  8  9  1  0  0  0  0
  9 10  2  0  0  0  0
 10 11  1  0  0  0  0
 11 12  2  0  0  0  0
 12 13  1  0  0  0  0
 13 14  2  0  0  0  0
  9 14  1  0  0  0  0
 14 15  1  0  0  0  0
  1 15  1  0  0  0  0
 15 16  2  0  0  0  0
  4 16  1  0  0  0  0
  8 16  1  0  0  0  0
  1 17  1  0  0  0  0
  2 18  1  0  0  0  0
  3 19  1  0  0  0  0
  5 20  1  0  0  0  0
  6 21  1  0  0  0  0
  7 22  1  0  0  0  0
 10 23  1  0  0  0  0
 11 24  1  0  0  0  0
 12 25  1  0  0  0  0
 13 26  1  0  0  0  0
M  END
$$$$
