C28H16
APtclcactv01171906273D 0   0.00000     0.00000
 
 44 50  0  0  0  0  0  0  0  0999 V2000
    0.3492   -2.4837    0.5033 C   0  0  0  0  0  0  0  0  0  0  0  0
    1.0043   -3.6945    0.4919 C   0  0  0  0  0  0  0  0  0  0  0  0
    2.3620   -3.7548    0.2158 C   0  0  0  0  0  0  0  0  0  0  0  0
    3.0763   -2.5961    0.0084 C   0  0  0  0  0  0  0  0  0  0  0  0
    2.4308   -1.3605    0.0395 C   0  0  0  0  0  0  0  0  0  0  0  0
    3.2053   -0.1127   -0.0641 C   0  0  0  0  0  0  0  0  0  0  0  0
    4.5969   -0.1469   -0.1721 C   0  0  0  0  0  0  0  0  0  0  0  0
    5.3118    1.0291   -0.2253 C   0  0  0  0  0  0  0  0  0  0  0  0
    4.6599    2.2516   -0.1759 C   0  0  0  0  0  0  0  0  0  0  0  0
    3.2854    2.3064   -0.0906 C   0  0  0  0  0  0  0  0  0  0  0  0
    2.5418    1.1259   -0.0453 C   0  0  0  0  0  0  0  0  0  0  0  0
    1.0674    1.1794    0.0079 C   0  0  0  0  0  0  0  0  0  0  0  0
    0.4528    2.4295    0.0250 C   0  0  0  0  0  0  0  0  0  0  0  0
   -0.9448    2.5017    0.0597 C   0  0  0  0  0  0  0  0  0  0  0  0
   -1.6591    1.2991    0.0296 C   0  0  0  0  0  0  0  0  0  0  0  0
   -1.0777    0.0300   -0.0328 C   0  0  0  0  0  0  0  0  0  0  0  0
    0.3195   -0.0282    0.0361 C   0  0  0  0  0  0  0  0  0  0  0  0
    1.0287   -1.3080    0.1833 C   0  0  0  0  0  0  0  0  0  0  0  0
   -2.1969   -0.9150   -0.1985 C   0  0  0  0  0  0  0  0  0  0  0  0
   -2.2769   -2.2671   -0.5169 C   0  0  0  0  0  0  0  0  0  0  0  0
   -3.4877   -2.9271   -0.4836 C   0  0  0  0  0  0  0  0  0  0  0  0
   -4.6511   -2.2412   -0.1786 C   0  0  0  0  0  0  0  0  0  0  0  0
   -4.6138   -0.8804    0.0516 C   0  0  0  0  0  0  0  0  0  0  0  0
   -3.4035   -0.1964    0.0042 C   0  0  0  0  0  0  0  0  0  0  0  0
   -3.0587    1.2353    0.0745 C   0  0  0  0  0  0  0  0  0  0  0  0
   -3.7455    2.4348    0.1589 C   0  0  0  0  0  0  0  0  0  0  0  0
   -3.0423    3.6396    0.1763 C   0  0  0  0  0  0  0  0  0  0  0  0
   -1.6782    3.7007    0.1232 C   0  0  0  0  0  0  0  0  0  0  0  0
   -0.6798   -2.4466    0.8249 H   0  0  0  0  0  0  0  0  0  0  0  0
    0.4580   -4.6033    0.6949 H   0  0  0  0  0  0  0  0  0  0  0  0
    2.8593   -4.7113    0.1616 H   0  0  0  0  0  0  0  0  0  0  0  0
    4.1379   -2.6518   -0.1827 H   0  0  0  0  0  0  0  0  0  0  0  0
    5.1193   -1.0906   -0.2163 H   0  0  0  0  0  0  0  0  0  0  0  0
    6.3887    0.9994   -0.3035 H   0  0  0  0  0  0  0  0  0  0  0  0
    5.2300    3.1684   -0.2008 H   0  0  0  0  0  0  0  0  0  0  0  0
    2.7941    3.2664   -0.0572 H   0  0  0  0  0  0  0  0  0  0  0  0
    1.0371    3.3358    0.0089 H   0  0  0  0  0  0  0  0  0  0  0  0
   -1.3923   -2.8055   -0.8260 H   0  0  0  0  0  0  0  0  0  0  0  0
   -3.5273   -3.9859   -0.6924 H   0  0  0  0  0  0  0  0  0  0  0  0
   -5.5892   -2.7717   -0.1174 H   0  0  0  0  0  0  0  0  0  0  0  0
   -5.5266   -0.3474    0.2721 H   0  0  0  0  0  0  0  0  0  0  0  0
   -4.8235    2.4406    0.2094 H   0  0  0  0  0  0  0  0  0  0  0  0
   -3.5984    4.5639    0.2313 H   0  0  0  0  0  0  0  0  0  0  0  0
   -1.1700    4.6534    0.1270 H   0  0  0  0  0  0  0  0  0  0  0  0
  1  2  2  0  0  0  0
  2  3  1  0  0  0  0
  3  4  2  0  0  0  0
  4  5  1  0  0  0  0
  5  6  2  0  0  0  0
  6  7  1  0  0  0  0
  7  8  2  0  0  0  0
  8  9  1  0  0  0  0
  9 10  2  0  0  0  0
 10 11  1  0  0  0  0
  6 11  1  0  0  0  0
 11 12  2  0  0  0  0
 12 13  1  0  0  0  0
 13 14  2  0  0  0  0
 14 15  1  0  0  0  0
 15 16  2  0  0  0  0
 16 17  1  0  0  0  0
 12 17  1  0  0  0  0
 17 18  2  0  0  0  0
  1 18  1  0  0  0  0
  5 18  1  0  0  0  0
 16 19  1  0  0  0  0
 19 20  2  0  0  0  0
 20 21  1  0  0  0  0
 21 22  2  0  0  0  0
 22 23  1  0  0  0  0
 23 24  2  0  0  0  0
 19 24  1  0  0  0  0
 24 25  1  0  0  0  0
 15 25  1  0  0  0  0
 25 26  2  0  0  0  0
 26 27  1  0  0  0  0
 27 28  2  0  0  0  0
 14 28  1  0  0  0  0
  1 29  1  0  0  0  0
  2 30  1  0  0  0  0
  3 31  1  0  0  0  0
  4 32  1  0  0  0  0
  7 33  1  0  0  0  0
  8 34  1  0  0  0  0
  9 35  1  0  0  0  0
 10 36  1  0  0  0  0
 13 37  1  0  0  0  0
 20 38  1  0  0  0  0
 21 39  1  0  0  0  0
 22 40  1  0  0  0  0
 23 41  1  0  0  0  0
 26 42  1  0  0  0  0
 27 43  1  0  0  0  0
 28 44  1  0  0  0  0
M  END
$$$$
