C24H14
APtclcactv01171906273D 0   0.00000     0.00000
 
 38 43  0  0  0  0  0  0  0  0999 V2000
   -5.9180    1.0394    0.0006 C   0  0  0  0  0  0  0  0  0  0  0  0
   -6.7262   -0.0594    0.0007 C   0  0  0  0  0  0  0  0  0  0  0  0
   -6.1892   -1.3407    0.0005 C   0  0  0  0  0  0  0  0  0  0  0  0
   -4.8223   -1.5269   -0.0001 C   0  0  0  0  0  0  0  0  0  0  0  0
   -3.9740   -0.4230   -0.0007 C   0  0  0  0  0  0  0  0  0  0  0  0
   -2.5093   -0.2793   -0.0006 C   0  0  0  0  0  0  0  0  0  0  0  0
   -1.4727   -1.1810   -0.0006 C   0  0  0  0  0  0  0  0  0  0  0  0
   -0.1384   -0.7197   -0.0005 C   0  0  0  0  0  0  0  0  0  0  0  0
    0.1380    0.7244   -0.0004 C   0  0  0  0  0  0  0  0  0  0  0  0
   -0.9146    1.6333   -0.0000 C   0  0  0  0  0  0  0  0  0  0  0  0
   -2.2401    1.1688   -0.0005 C   0  0  0  0  0  0  0  0  0  0  0  0
   -3.4703    1.8243    0.0006 C   0  0  0  0  0  0  0  0  0  0  0  0
   -4.5196    0.8853   -0.0000 C   0  0  0  0  0  0  0  0  0  0  0  0
    1.4728    1.1848   -0.0004 C   0  0  0  0  0  0  0  0  0  0  0  0
    2.5095    0.2827   -0.0003 C   0  0  0  0  0  0  0  0  0  0  0  0
    3.9746    0.4231    0.0003 C   0  0  0  0  0  0  0  0  0  0  0  0
    4.8258    1.5248    0.0001 C   0  0  0  0  0  0  0  0  0  0  0  0
    6.1920    1.3351    0.0003 C   0  0  0  0  0  0  0  0  0  0  0  0
    6.7273    0.0531    0.0002 C   0  0  0  0  0  0  0  0  0  0  0  0
    5.9163   -1.0440   -0.0001 C   0  0  0  0  0  0  0  0  0  0  0  0
    4.5183   -0.8862    0.0006 C   0  0  0  0  0  0  0  0  0  0  0  0
    3.4676   -1.8232    0.0005 C   0  0  0  0  0  0  0  0  0  0  0  0
    2.2388   -1.1653   -0.0003 C   0  0  0  0  0  0  0  0  0  0  0  0
    0.9134   -1.6292    0.0000 C   0  0  0  0  0  0  0  0  0  0  0  0
   -6.3520    2.0284   -0.0034 H   0  0  0  0  0  0  0  0  0  0  0  0
   -7.7986    0.0684    0.0012 H   0  0  0  0  0  0  0  0  0  0  0  0
   -6.8467   -2.1975    0.0013 H   0  0  0  0  0  0  0  0  0  0  0  0
   -4.4116   -2.5258    0.0001 H   0  0  0  0  0  0  0  0  0  0  0  0
   -1.6782   -2.2412   -0.0003 H   0  0  0  0  0  0  0  0  0  0  0  0
   -0.7132    2.6943   -0.0001 H   0  0  0  0  0  0  0  0  0  0  0  0
   -3.5998    2.8965    0.0015 H   0  0  0  0  0  0  0  0  0  0  0  0
    1.6789    2.2450   -0.0007 H   0  0  0  0  0  0  0  0  0  0  0  0
    4.4176    2.5247   -0.0005 H   0  0  0  0  0  0  0  0  0  0  0  0
    6.8513    2.1905    0.0002 H   0  0  0  0  0  0  0  0  0  0  0  0
    7.7994   -0.0767    0.0000 H   0  0  0  0  0  0  0  0  0  0  0  0
    6.3477   -2.0341   -0.0009 H   0  0  0  0  0  0  0  0  0  0  0  0
    3.5951   -2.8956   -0.0002 H   0  0  0  0  0  0  0  0  0  0  0  0
    0.7114   -2.6902    0.0018 H   0  0  0  0  0  0  0  0  0  0  0  0
  1  2  2  0  0  0  0
  2  3  1  0  0  0  0
  3  4  2  0  0  0  0
  4  5  1  0  0  0  0
  5  6  2  0  0  0  0
  6  7  1  0  0  0  0
  7  8  2  0  0  0  0
  8  9  1  0  0  0  0
  9 10  1  0  0  0  0
 10 11  2  0  0  0  0
  6 11  1  0  0  0  0
 11 12  1  0  0  0  0
 12 13  2  0  0  0  0
  1 13  1  0  0  0  0
  5 13  1  0  0  0  0
  9 14  2  0  0  0  0
 14 15  1  0  0  0  0
 15 16  2  0  0  0  0
 16 17  1  0  0  0  0
 17 18  2  0  0  0  0
 18 19  1  0  0  0  0
 19 20  2  0  0  0  0
 20 21  1  0  0  0  0
 16 21  1  0  0  0  0
 21 22  2  0  0  0  0
 22 23  1  0  0  0  0
 15 23  1  0  0  0  0
 23 24  2  0  0  0  0
  8 24  1  0  0  0  0
  1 25  1  0  0  0  0
  2 26  1  0  0  0  0
  3 27  1  0  0  0  0
  4 28  1  0  0  0  0
  7 29  1  0  0  0  0
 10 30  1  0  0  0  0
 12 31  1  0  0  0  0
 14 32  1  0  0  0  0
 17 33  1  0  0  0  0
 18 34  1  0  0  0  0
 19 35  1  0  0  0  0
 20 36  1  0  0  0  0
 22 37  1  0  0  0  0
 24 38  1  0  0  0  0
M  END
$$$$
