C32H18
APtclcactv01171906273D 0   0.00000     0.00000
 
 50 57  0  0  0  0  0  0  0  0999 V2000
   -3.4871   -2.8360    0.0382 C   0  0  0  0  0  0  0  0  0  0  0  0
   -4.6857   -3.5149    0.0342 C   0  0  0  0  0  0  0  0  0  0  0  0
   -5.8872   -2.8214    0.0121 C   0  0  0  0  0  0  0  0  0  0  0  0
   -5.8992   -1.4439   -0.0072 C   0  0  0  0  0  0  0  0  0  0  0  0
   -4.6953   -0.7378   -0.0022 C   0  0  0  0  0  0  0  0  0  0  0  0
   -4.6961    0.7358   -0.0227 C   0  0  0  0  0  0  0  0  0  0  0  0
   -5.9016    1.4390   -0.0545 C   0  0  0  0  0  0  0  0  0  0  0  0
   -5.8925    2.8167   -0.0718 C   0  0  0  0  0  0  0  0  0  0  0  0
   -4.6927    3.5127   -0.0574 C   0  0  0  0  0  0  0  0  0  0  0  0
   -3.4928    2.8369   -0.0259 C   0  0  0  0  0  0  0  0  0  0  0  0
   -3.4809    1.4412   -0.0100 C   0  0  0  0  0  0  0  0  0  0  0  0
   -2.1990    0.7098    0.0154 C   0  0  0  0  0  0  0  0  0  0  0  0
   -1.0084    1.4196    0.0319 C   0  0  0  0  0  0  0  0  0  0  0  0
    0.2136    0.7351    0.0428 C   0  0  0  0  0  0  0  0  0  0  0  0
    0.2136   -0.7300    0.0355 C   0  0  0  0  0  0  0  0  0  0  0  0
   -1.0077   -1.4154    0.0321 C   0  0  0  0  0  0  0  0  0  0  0  0
   -2.1985   -0.7061    0.0231 C   0  0  0  0  0  0  0  0  0  0  0  0
   -3.4787   -1.4404    0.0208 C   0  0  0  0  0  0  0  0  0  0  0  0
    1.4335   -1.4275    0.0209 C   0  0  0  0  0  0  0  0  0  0  0  0
    2.6233   -0.7338    0.0115 C   0  0  0  0  0  0  0  0  0  0  0  0
    4.0355   -1.1650   -0.0227 C   0  0  0  0  0  0  0  0  0  0  0  0
    4.7120   -2.3726   -0.0653 C   0  0  0  0  0  0  0  0  0  0  0  0
    6.1049   -2.3879   -0.0907 C   0  0  0  0  0  0  0  0  0  0  0  0
    6.8587   -1.2472   -0.0734 C   0  0  0  0  0  0  0  0  0  0  0  0
    6.2102   -0.0013   -0.0279 C   0  0  0  0  0  0  0  0  0  0  0  0
    6.8617    1.2437   -0.0010 C   0  0  0  0  0  0  0  0  0  0  0  0
    6.1108    2.3852    0.0425 C   0  0  0  0  0  0  0  0  0  0  0  0
    4.7176    2.3724    0.0607 C   0  0  0  0  0  0  0  0  0  0  0  0
    4.0377    1.1661    0.0358 C   0  0  0  0  0  0  0  0  0  0  0  0
    2.6243    0.7370    0.0376 C   0  0  0  0  0  0  0  0  0  0  0  0
    1.4345    1.4312    0.0556 C   0  0  0  0  0  0  0  0  0  0  0  0
    4.8105    0.0000   -0.0060 C   0  0  0  0  0  0  0  0  0  0  0  0
   -2.5558   -3.3824    0.0593 H   0  0  0  0  0  0  0  0  0  0  0  0
   -4.6902   -4.5948    0.0480 H   0  0  0  0  0  0  0  0  0  0  0  0
   -6.8201   -3.3655    0.0096 H   0  0  0  0  0  0  0  0  0  0  0  0
   -6.8385   -0.9114   -0.0265 H   0  0  0  0  0  0  0  0  0  0  0  0
   -6.8397    0.9040   -0.0659 H   0  0  0  0  0  0  0  0  0  0  0  0
   -6.8264    3.3586   -0.0970 H   0  0  0  0  0  0  0  0  0  0  0  0
   -4.6994    4.5925   -0.0714 H   0  0  0  0  0  0  0  0  0  0  0  0
   -2.5628    3.3859   -0.0140 H   0  0  0  0  0  0  0  0  0  0  0  0
   -1.0231    2.4995    0.0358 H   0  0  0  0  0  0  0  0  0  0  0  0
   -1.0216   -2.4953    0.0366 H   0  0  0  0  0  0  0  0  0  0  0  0
    1.4380   -2.5075    0.0173 H   0  0  0  0  0  0  0  0  0  0  0  0
    4.1606   -3.3012   -0.0786 H   0  0  0  0  0  0  0  0  0  0  0  0
    6.6108   -3.3415   -0.1252 H   0  0  0  0  0  0  0  0  0  0  0  0
    7.9371   -1.3030   -0.0941 H   0  0  0  0  0  0  0  0  0  0  0  0
    7.9402    1.2978   -0.0143 H   0  0  0  0  0  0  0  0  0  0  0  0
    6.6192    3.3378    0.0641 H   0  0  0  0  0  0  0  0  0  0  0  0
    4.1687    3.3019    0.0946 H   0  0  0  0  0  0  0  0  0  0  0  0
    1.4400    2.5109    0.0795 H   0  0  0  0  0  0  0  0  0  0  0  0
  1  2  2  0  0  0  0
  2  3  1  0  0  0  0
  3  4  2  0  0  0  0
  4  5  1  0  0  0  0
  5  6  2  0  0  0  0
  6  7  1  0  0  0  0
  7  8  2  0  0  0  0
  8  9  1  0  0  0  0
  9 10  2  0  0  0  0
 10 11  1  0  0  0  0
  6 11  1  0  0  0  0
 11 12  2  0  0  0  0
 12 13  1  0  0  0  0
 13 14  2  0  0  0  0
 14 15  1  0  0  0  0
 15 16  2  0  0  0  0
 16 17  1  0  0  0  0
 12 17  1  0  0  0  0
 17 18  2  0  0  0  0
  1 18  1  0  0  0  0
  5 18  1  0  0  0  0
 15 19  1  0  0  0  0
 19 20  2  0  0  0  0
 20 21  1  0  0  0  0
 21 22  2  0  0  0  0
 22 23  1  0  0  0  0
 23 24  2  0  0  0  0
 24 25  1  0  0  0  0
 25 26  2  0  0  0  0
 26 27  1  0  0  0  0
 27 28  2  0  0  0  0
 28 29  1  0  0  0  0
 29 30  1  0  0  0  0
 20 30  1  0  0  0  0
 30 31  2  0  0  0  0
 14 31  1  0  0  0  0
 29 32  2  0  0  0  0
 25 32  1  0  0  0  0
 21 32  1  0  0  0  0
  1 33  1  0  0  0  0
  2 34  1  0  0  0  0
  3 35  1  0  0  0  0
  4 36  1  0  0  0  0
  7 37  1  0  0  0  0
  8 38  1  0  0  0  0
  9 39  1  0  0  0  0
 10 40  1  0  0  0  0
 13 41  1  0  0  0  0
 16 42  1  0  0  0  0
 19 43  1  0  0  0  0
 22 44  1  0  0  0  0
 23 45  1  0  0  0  0
 24 46  1  0  0  0  0
 26 47  1  0  0  0  0
 27 48  1  0  0  0  0
 28 49  1  0  0  0  0
 31 50  1  0  0  0  0
M  END
$$$$
