C24H14
APtclcactv01171906273D 0   0.00000     0.00000
 
 38 43  0  0  0  0  0  0  0  0999 V2000
   -1.0156   -2.4507    0.0008 C   0  0  0  0  0  0  0  0  0  0  0  0
   -0.0812   -3.4733    0.0010 C   0  0  0  0  0  0  0  0  0  0  0  0
    1.2671   -3.1997    0.0005 C   0  0  0  0  0  0  0  0  0  0  0  0
    1.7246   -1.8662    0.0003 C   0  0  0  0  0  0  0  0  0  0  0  0
    3.0972   -1.5943   -0.0002 C   0  0  0  0  0  0  0  0  0  0  0  0
    3.5683   -0.2767   -0.0004 C   0  0  0  0  0  0  0  0  0  0  0  0
    4.9521   -0.0077   -0.0014 C   0  0  0  0  0  0  0  0  0  0  0  0
    5.3880    1.2823   -0.0020 C   0  0  0  0  0  0  0  0  0  0  0  0
    4.4863    2.3428   -0.0012 C   0  0  0  0  0  0  0  0  0  0  0  0
    3.1389    2.1175    0.0002 C   0  0  0  0  0  0  0  0  0  0  0  0
    2.6547    0.8081   -0.0001 C   0  0  0  0  0  0  0  0  0  0  0  0
    1.2113    0.5355    0.0009 C   0  0  0  0  0  0  0  0  0  0  0  0
    0.7780   -0.8094    0.0001 C   0  0  0  0  0  0  0  0  0  0  0  0
   -0.6010   -1.1179    0.0001 C   0  0  0  0  0  0  0  0  0  0  0  0
   -1.5730   -0.0239    0.0008 C   0  0  0  0  0  0  0  0  0  0  0  0
   -2.9758    0.0337    0.0002 C   0  0  0  0  0  0  0  0  0  0  0  0
   -3.9901   -0.9378   -0.0012 C   0  0  0  0  0  0  0  0  0  0  0  0
   -5.2944   -0.5515   -0.0020 C   0  0  0  0  0  0  0  0  0  0  0  0
   -5.6578    0.7952   -0.0019 C   0  0  0  0  0  0  0  0  0  0  0  0
   -4.7280    1.7849   -0.0007 C   0  0  0  0  0  0  0  0  0  0  0  0
   -3.3551    1.4545    0.0007 C   0  0  0  0  0  0  0  0  0  0  0  0
   -2.1917    2.2184    0.0017 C   0  0  0  0  0  0  0  0  0  0  0  0
   -1.0778    1.3582    0.0017 C   0  0  0  0  0  0  0  0  0  0  0  0
    0.3014    1.5907    0.0026 C   0  0  0  0  0  0  0  0  0  0  0  0
   -2.0697   -2.6857   -0.0034 H   0  0  0  0  0  0  0  0  0  0  0  0
   -0.4159   -4.5001    0.0019 H   0  0  0  0  0  0  0  0  0  0  0  0
    1.9794   -4.0115    0.0007 H   0  0  0  0  0  0  0  0  0  0  0  0
    3.8025   -2.4122   -0.0001 H   0  0  0  0  0  0  0  0  0  0  0  0
    5.6629   -0.8208   -0.0013 H   0  0  0  0  0  0  0  0  0  0  0  0
    6.4487    1.4856   -0.0027 H   0  0  0  0  0  0  0  0  0  0  0  0
    4.8568    3.3572   -0.0013 H   0  0  0  0  0  0  0  0  0  0  0  0
    2.4505    2.9496    0.0015 H   0  0  0  0  0  0  0  0  0  0  0  0
   -3.7355   -1.9874   -0.0020 H   0  0  0  0  0  0  0  0  0  0  0  0
   -6.0674   -1.3058   -0.0031 H   0  0  0  0  0  0  0  0  0  0  0  0
   -6.7055    1.0575   -0.0033 H   0  0  0  0  0  0  0  0  0  0  0  0
   -5.0371    2.8197   -0.0010 H   0  0  0  0  0  0  0  0  0  0  0  0
   -2.1504    3.2976    0.0018 H   0  0  0  0  0  0  0  0  0  0  0  0
    0.6678    2.6066    0.0034 H   0  0  0  0  0  0  0  0  0  0  0  0
  1  2  2  0  0  0  0
  2  3  1  0  0  0  0
  3  4  2  0  0  0  0
  4  5  1  0  0  0  0
  5  6  2  0  0  0  0
  6  7  1  0  0  0  0
  7  8  2  0  0  0  0
  8  9  1  0  0  0  0
  9 10  2  0  0  0  0
 10 11  1  0  0  0  0
  6 11  1  0  0  0  0
 11 12  2  0  0  0  0
 12 13  1  0  0  0  0
  4 13  1  0  0  0  0
 13 14  2  0  0  0  0
  1 14  1  0  0  0  0
 14 15  1  0  0  0  0
 15 16  2  0  0  0  0
 16 17  1  0  0  0  0
 17 18  2  0  0  0  0
 18 19  1  0  0  0  0
 19 20  2  0  0  0  0
 20 21  1  0  0  0  0
 16 21  1  0  0  0  0
 21 22  2  0  0  0  0
 22 23  1  0  0  0  0
 15 23  1  0  0  0  0
 23 24  2  0  0  0  0
 12 24  1  0  0  0  0
  1 25  1  0  0  0  0
  2 26  1  0  0  0  0
  3 27  1  0  0  0  0
  5 28  1  0  0  0  0
  7 29  1  0  0  0  0
  8 30  1  0  0  0  0
  9 31  1  0  0  0  0
 10 32  1  0  0  0  0
 17 33  1  0  0  0  0
 18 34  1  0  0  0  0
 19 35  1  0  0  0  0
 20 36  1  0  0  0  0
 22 37  1  0  0  0  0
 24 38  1  0  0  0  0
M  END
$$$$
