C24H14
APtclcactv01171906273D 0   0.00000     0.00000
 
 38 43  0  0  0  0  0  0  0  0999 V2000
    2.2677    2.1109    0.0007 C   0  0  0  0  0  0  0  0  0  0  0  0
    2.6570    0.7737    0.0005 C   0  0  0  0  0  0  0  0  0  0  0  0
    1.9110   -0.4909    0.0005 C   0  0  0  0  0  0  0  0  0  0  0  0
    2.9158   -1.5639   -0.0003 C   0  0  0  0  0  0  0  0  0  0  0  0
    4.1668   -0.9679   -0.0007 C   0  0  0  0  0  0  0  0  0  0  0  0
    4.0347    0.4397   -0.0003 C   0  0  0  0  0  0  0  0  0  0  0  0
    4.9855    1.4709   -0.0009 C   0  0  0  0  0  0  0  0  0  0  0  0
    4.5743    2.7857   -0.0007 C   0  0  0  0  0  0  0  0  0  0  0  0
    3.2245    3.1064    0.0001 C   0  0  0  0  0  0  0  0  0  0  0  0
    2.4826   -2.9593   -0.0004 C   0  0  0  0  0  0  0  0  0  0  0  0
    1.1708   -3.2722   -0.0004 C   0  0  0  0  0  0  0  0  0  0  0  0
    0.1517   -2.2244    0.0003 C   0  0  0  0  0  0  0  0  0  0  0  0
   -1.1977   -2.5574    0.0001 C   0  0  0  0  0  0  0  0  0  0  0  0
   -2.1681   -1.5393    0.0006 C   0  0  0  0  0  0  0  0  0  0  0  0
   -3.5626   -1.5669   -0.0003 C   0  0  0  0  0  0  0  0  0  0  0  0
   -4.0758   -0.2478   -0.0002 C   0  0  0  0  0  0  0  0  0  0  0  0
   -5.3901    0.2438   -0.0013 C   0  0  0  0  0  0  0  0  0  0  0  0
   -5.6159    1.6051   -0.0013 C   0  0  0  0  0  0  0  0  0  0  0  0
   -4.5558    2.4955   -0.0003 C   0  0  0  0  0  0  0  0  0  0  0  0
   -3.2493    2.0312    0.0008 C   0  0  0  0  0  0  0  0  0  0  0  0
   -2.9991    0.6689    0.0009 C   0  0  0  0  0  0  0  0  0  0  0  0
   -1.7511   -0.1291    0.0013 C   0  0  0  0  0  0  0  0  0  0  0  0
   -0.4338    0.2018    0.0015 C   0  0  0  0  0  0  0  0  0  0  0  0
    0.5531   -0.8150    0.0006 C   0  0  0  0  0  0  0  0  0  0  0  0
    1.2189    2.3688   -0.0031 H   0  0  0  0  0  0  0  0  0  0  0  0
    5.1060   -1.5011   -0.0013 H   0  0  0  0  0  0  0  0  0  0  0  0
    6.0393    1.2343   -0.0012 H   0  0  0  0  0  0  0  0  0  0  0  0
    5.3108    3.5756   -0.0008 H   0  0  0  0  0  0  0  0  0  0  0  0
    2.9199    4.1425    0.0003 H   0  0  0  0  0  0  0  0  0  0  0  0
    3.2203   -3.7480   -0.0009 H   0  0  0  0  0  0  0  0  0  0  0  0
    0.8696   -4.3094   -0.0012 H   0  0  0  0  0  0  0  0  0  0  0  0
   -1.5000   -3.5942   -0.0007 H   0  0  0  0  0  0  0  0  0  0  0  0
   -4.1635   -2.4643   -0.0012 H   0  0  0  0  0  0  0  0  0  0  0  0
   -6.2240   -0.4425   -0.0024 H   0  0  0  0  0  0  0  0  0  0  0  0
   -6.6290    1.9794   -0.0025 H   0  0  0  0  0  0  0  0  0  0  0  0
   -4.7476    3.5583   -0.0007 H   0  0  0  0  0  0  0  0  0  0  0  0
   -2.4271    2.7315    0.0016 H   0  0  0  0  0  0  0  0  0  0  0  0
   -0.1383    1.2406    0.0017 H   0  0  0  0  0  0  0  0  0  0  0  0
  1  2  2  0  0  0  0
  2  3  1  0  0  0  0
  3  4  1  0  0  0  0
  4  5  2  0  0  0  0
  5  6  1  0  0  0  0
  2  6  1  0  0  0  0
  6  7  2  0  0  0  0
  7  8  1  0  0  0  0
  8  9  2  0  0  0  0
  1  9  1  0  0  0  0
  4 10  1  0  0  0  0
 10 11  2  0  0  0  0
 11 12  1  0  0  0  0
 12 13  2  0  0  0  0
 13 14  1  0  0  0  0
 14 15  2  0  0  0  0
 15 16  1  0  0  0  0
 16 17  1  0  0  0  0
 17 18  2  0  0  0  0
 18 19  1  0  0  0  0
 19 20  2  0  0  0  0
 20 21  1  0  0  0  0
 16 21  2  0  0  0  0
 21 22  1  0  0  0  0
 14 22  1  0  0  0  0
 22 23  2  0  0  0  0
 23 24  1  0  0  0  0
 12 24  1  0  0  0  0
  3 24  2  0  0  0  0
  1 25  1  0  0  0  0
  5 26  1  0  0  0  0
  7 27  1  0  0  0  0
  8 28  1  0  0  0  0
  9 29  1  0  0  0  0
 10 30  1  0  0  0  0
 11 31  1  0  0  0  0
 13 32  1  0  0  0  0
 15 33  1  0  0  0  0
 17 34  1  0  0  0  0
 18 35  1  0  0  0  0
 19 36  1  0  0  0  0
 20 37  1  0  0  0  0
 23 38  1  0  0  0  0
M  END
$$$$
