C30H18
APtclcactv01171906273D 0   0.00000     0.00000
 
 48 54  0  0  0  0  0  0  0  0999 V2000
   -5.7131   -2.6504    0.0002 C   0  0  0  0  0  0  0  0  0  0  0  0
   -7.0689   -2.5851   -0.0001 C   0  0  0  0  0  0  0  0  0  0  0  0
   -7.7444   -1.3639   -0.0007 C   0  0  0  0  0  0  0  0  0  0  0  0
   -7.0804   -0.1801   -0.0005 C   0  0  0  0  0  0  0  0  0  0  0  0
   -5.6684   -0.1733    0.0003 C   0  0  0  0  0  0  0  0  0  0  0  0
   -4.9547    1.0219    0.0001 C   0  0  0  0  0  0  0  0  0  0  0  0
   -3.5564    0.9955    0.0005 C   0  0  0  0  0  0  0  0  0  0  0  0
   -2.8264    2.1962   -0.0000 C   0  0  0  0  0  0  0  0  0  0  0  0
   -1.4403    2.1627   -0.0001 C   0  0  0  0  0  0  0  0  0  0  0  0
   -0.6716    3.4078   -0.0002 C   0  0  0  0  0  0  0  0  0  0  0  0
    0.6717    3.4078    0.0001 C   0  0  0  0  0  0  0  0  0  0  0  0
    1.4401    2.1626    0.0004 C   0  0  0  0  0  0  0  0  0  0  0  0
    2.8262    2.1958    0.0001 C   0  0  0  0  0  0  0  0  0  0  0  0
    3.5564    0.9952   -0.0001 C   0  0  0  0  0  0  0  0  0  0  0  0
    4.9547    1.0219   -0.0001 C   0  0  0  0  0  0  0  0  0  0  0  0
    5.6682   -0.1733    0.0002 C   0  0  0  0  0  0  0  0  0  0  0  0
    7.0802   -0.1799   -0.0003 C   0  0  0  0  0  0  0  0  0  0  0  0
    7.7446   -1.3635   -0.0004 C   0  0  0  0  0  0  0  0  0  0  0  0
    7.0693   -2.5848    0.0000 C   0  0  0  0  0  0  0  0  0  0  0  0
    5.7135   -2.6503    0.0001 C   0  0  0  0  0  0  0  0  0  0  0  0
    4.9584   -1.4574    0.0006 C   0  0  0  0  0  0  0  0  0  0  0  0
    3.5665   -1.4879    0.0002 C   0  0  0  0  0  0  0  0  0  0  0  0
    2.8470   -0.2900    0.0002 C   0  0  0  0  0  0  0  0  0  0  0  0
    1.4403   -0.3098   -0.0009 C   0  0  0  0  0  0  0  0  0  0  0  0
    0.7372    0.8766    0.0006 C   0  0  0  0  0  0  0  0  0  0  0  0
   -0.7375    0.8767    0.0003 C   0  0  0  0  0  0  0  0  0  0  0  0
   -1.4403   -0.3099   -0.0006 C   0  0  0  0  0  0  0  0  0  0  0  0
   -2.8471   -0.2898    0.0010 C   0  0  0  0  0  0  0  0  0  0  0  0
   -3.5665   -1.4876   -0.0003 C   0  0  0  0  0  0  0  0  0  0  0  0
   -4.9583   -1.4573    0.0004 C   0  0  0  0  0  0  0  0  0  0  0  0
   -5.2151   -3.6087    0.0047 H   0  0  0  0  0  0  0  0  0  0  0  0
   -7.6397   -3.5019   -0.0003 H   0  0  0  0  0  0  0  0  0  0  0  0
   -8.8244   -1.3607   -0.0016 H   0  0  0  0  0  0  0  0  0  0  0  0
   -7.6284    0.7506   -0.0014 H   0  0  0  0  0  0  0  0  0  0  0  0
   -5.4790    1.9661   -0.0007 H   0  0  0  0  0  0  0  0  0  0  0  0
   -3.3443    3.1439   -0.0007 H   0  0  0  0  0  0  0  0  0  0  0  0
   -1.1978    4.3510   -0.0007 H   0  0  0  0  0  0  0  0  0  0  0  0
    1.1979    4.3509   -0.0003 H   0  0  0  0  0  0  0  0  0  0  0  0
    3.3441    3.1435   -0.0004 H   0  0  0  0  0  0  0  0  0  0  0  0
    5.4788    1.9662   -0.0008 H   0  0  0  0  0  0  0  0  0  0  0  0
    7.6281    0.7509   -0.0011 H   0  0  0  0  0  0  0  0  0  0  0  0
    8.8246   -1.3601   -0.0011 H   0  0  0  0  0  0  0  0  0  0  0  0
    7.6402   -3.5016   -0.0000 H   0  0  0  0  0  0  0  0  0  0  0  0
    5.2156   -3.6087    0.0001 H   0  0  0  0  0  0  0  0  0  0  0  0
    3.0449   -2.4336   -0.0005 H   0  0  0  0  0  0  0  0  0  0  0  0
    0.9122   -1.2519   -0.0014 H   0  0  0  0  0  0  0  0  0  0  0  0
   -0.9123   -1.2520   -0.0017 H   0  0  0  0  0  0  0  0  0  0  0  0
   -3.0448   -2.4333   -0.0025 H   0  0  0  0  0  0  0  0  0  0  0  0
  1  2  2  0  0  0  0
  2  3  1  0  0  0  0
  3  4  2  0  0  0  0
  4  5  1  0  0  0  0
  5  6  2  0  0  0  0
  6  7  1  0  0  0  0
  7  8  2  0  0  0  0
  8  9  1  0  0  0  0
  9 10  2  0  0  0  0
 10 11  1  0  0  0  0
 11 12  2  0  0  0  0
 12 13  1  0  0  0  0
 13 14  2  0  0  0  0
 14 15  1  0  0  0  0
 15 16  2  0  0  0  0
 16 17  1  0  0  0  0
 17 18  2  0  0  0  0
 18 19  1  0  0  0  0
 19 20  2  0  0  0  0
 20 21  1  0  0  0  0
 16 21  1  0  0  0  0
 21 22  2  0  0  0  0
 22 23  1  0  0  0  0
 14 23  1  0  0  0  0
 23 24  2  0  0  0  0
 24 25  1  0  0  0  0
 12 25  1  0  0  0  0
 25 26  2  0  0  0  0
  9 26  1  0  0  0  0
 26 27  1  0  0  0  0
 27 28  2  0  0  0  0
  7 28  1  0  0  0  0
 28 29  1  0  0  0  0
 29 30  2  0  0  0  0
  1 30  1  0  0  0  0
  5 30  1  0  0  0  0
  1 31  1  0  0  0  0
  2 32  1  0  0  0  0
  3 33  1  0  0  0  0
  4 34  1  0  0  0  0
  6 35  1  0  0  0  0
  8 36  1  0  0  0  0
 10 37  1  0  0  0  0
 11 38  1  0  0  0  0
 13 39  1  0  0  0  0
 15 40  1  0  0  0  0
 17 41  1  0  0  0  0
 18 42  1  0  0  0  0
 19 43  1  0  0  0  0
 20 44  1  0  0  0  0
 22 45  1  0  0  0  0
 24 46  1  0  0  0  0
 27 47  1  0  0  0  0
 29 48  1  0  0  0  0
M  END
$$$$
