C26H16
APtclcactv01171906273D 0   0.00000     0.00000
 
 42 47  0  0  0  0  0  0  0  0999 V2000
    0.3947   -1.1952   -1.2895 C   0  0  0  0  0  0  0  0  0  0  0  0
    0.5259   -2.5009   -1.6686 C   0  0  0  0  0  0  0  0  0  0  0  0
    1.6426   -3.2419   -1.2992 C   0  0  0  0  0  0  0  0  0  0  0  0
    2.6556   -2.6724   -0.5864 C   0  0  0  0  0  0  0  0  0  0  0  0
    2.5722   -1.3208   -0.2250 C   0  0  0  0  0  0  0  0  0  0  0  0
    3.6540   -0.6715    0.4097 C   0  0  0  0  0  0  0  0  0  0  0  0
    3.6115    0.6514    0.6843 C   0  0  0  0  0  0  0  0  0  0  0  0
    2.4629    1.4167    0.3965 C   0  0  0  0  0  0  0  0  0  0  0  0
    2.4887    2.8226    0.4814 C   0  0  0  0  0  0  0  0  0  0  0  0
    1.3647    3.5441    0.2561 C   0  0  0  0  0  0  0  0  0  0  0  0
    0.1400    2.8999   -0.0057 C   0  0  0  0  0  0  0  0  0  0  0  0
   -1.0068    3.6483   -0.3405 C   0  0  0  0  0  0  0  0  0  0  0  0
   -2.1959    3.0328   -0.5313 C   0  0  0  0  0  0  0  0  0  0  0  0
   -2.3226    1.6416   -0.3481 C   0  0  0  0  0  0  0  0  0  0  0  0
   -3.5425    0.9891   -0.6300 C   0  0  0  0  0  0  0  0  0  0  0  0
   -3.7147   -0.3239   -0.3671 C   0  0  0  0  0  0  0  0  0  0  0  0
   -2.6938   -1.0843    0.2431 C   0  0  0  0  0  0  0  0  0  0  0  0
   -2.8888   -2.4417    0.5367 C   0  0  0  0  0  0  0  0  0  0  0  0
   -1.9275   -3.1306    1.2155 C   0  0  0  0  0  0  0  0  0  0  0  0
   -0.7469   -2.5075    1.6049 C   0  0  0  0  0  0  0  0  0  0  0  0
   -0.5101   -1.2006    1.2901 C   0  0  0  0  0  0  0  0  0  0  0  0
   -1.4584   -0.4729    0.5672 C   0  0  0  0  0  0  0  0  0  0  0  0
   -1.2146    0.8905    0.1066 C   0  0  0  0  0  0  0  0  0  0  0  0
    0.0621    1.4839    0.0536 C   0  0  0  0  0  0  0  0  0  0  0  0
    1.2720    0.7679   -0.0019 C   0  0  0  0  0  0  0  0  0  0  0  0
    1.3887   -0.5948   -0.5153 C   0  0  0  0  0  0  0  0  0  0  0  0
   -0.4680   -0.6289   -1.6075 H   0  0  0  0  0  0  0  0  0  0  0  0
   -0.2510   -2.9623   -2.2614 H   0  0  0  0  0  0  0  0  0  0  0  0
    1.7044   -4.2834   -1.5750 H   0  0  0  0  0  0  0  0  0  0  0  0
    3.5177   -3.2608   -0.3034 H   0  0  0  0  0  0  0  0  0  0  0  0
    4.5252   -1.2425    0.6858 H   0  0  0  0  0  0  0  0  0  0  0  0
    4.4719    1.1243    1.1337 H   0  0  0  0  0  0  0  0  0  0  0  0
    3.4104    3.3289    0.7201 H   0  0  0  0  0  0  0  0  0  0  0  0
    1.4129    4.6232    0.2705 H   0  0  0  0  0  0  0  0  0  0  0  0
   -0.9346    4.7202   -0.4405 H   0  0  0  0  0  0  0  0  0  0  0  0
   -3.0573    3.6169   -0.8223 H   0  0  0  0  0  0  0  0  0  0  0  0
   -4.3537    1.5517   -1.0645 H   0  0  0  0  0  0  0  0  0  0  0  0
   -4.6485   -0.7985   -0.6305 H   0  0  0  0  0  0  0  0  0  0  0  0
   -3.7970   -2.9397    0.2287 H   0  0  0  0  0  0  0  0  0  0  0  0
   -2.0860   -4.1714    1.4539 H   0  0  0  0  0  0  0  0  0  0  0  0
   -0.0059   -3.0666    2.1564 H   0  0  0  0  0  0  0  0  0  0  0  0
    0.4063   -0.7310    1.6168 H   0  0  0  0  0  0  0  0  0  0  0  0
  1  2  2  0  0  0  0
  2  3  1  0  0  0  0
  3  4  2  0  0  0  0
  4  5  1  0  0  0  0
  5  6  2  0  0  0  0
  6  7  1  0  0  0  0
  7  8  2  0  0  0  0
  8  9  1  0  0  0  0
  9 10  2  0  0  0  0
 10 11  1  0  0  0  0
 11 12  2  0  0  0  0
 12 13  1  0  0  0  0
 13 14  2  0  0  0  0
 14 15  1  0  0  0  0
 15 16  2  0  0  0  0
 16 17  1  0  0  0  0
 17 18  2  0  0  0  0
 18 19  1  0  0  0  0
 19 20  2  0  0  0  0
 20 21  1  0  0  0  0
 21 22  2  0  0  0  0
 17 22  1  0  0  0  0
 22 23  1  0  0  0  0
 14 23  1  0  0  0  0
 23 24  2  0  0  0  0
 11 24  1  0  0  0  0
 24 25  1  0  0  0  0
  8 25  1  0  0  0  0
 25 26  2  0  0  0  0
  1 26  1  0  0  0  0
  5 26  1  0  0  0  0
  1 27  1  0  0  0  0
  2 28  1  0  0  0  0
  3 29  1  0  0  0  0
  4 30  1  0  0  0  0
  6 31  1  0  0  0  0
  7 32  1  0  0  0  0
  9 33  1  0  0  0  0
 10 34  1  0  0  0  0
 12 35  1  0  0  0  0
 13 36  1  0  0  0  0
 15 37  1  0  0  0  0
 16 38  1  0  0  0  0
 18 39  1  0  0  0  0
 19 40  1  0  0  0  0
 20 41  1  0  0  0  0
 21 42  1  0  0  0  0
M  END
$$$$
