C26H16
APtclcactv01171906273D 0   0.00000     0.00000
 
 42 47  0  0  0  0  0  0  0  0999 V2000
   -4.3602   -2.4004   -0.0009 C   0  0  0  0  0  0  0  0  0  0  0  0
   -5.7136   -2.5314   -0.0000 C   0  0  0  0  0  0  0  0  0  0  0  0
   -6.5558   -1.4216    0.0005 C   0  0  0  0  0  0  0  0  0  0  0  0
   -6.0655   -0.1537    0.0005 C   0  0  0  0  0  0  0  0  0  0  0  0
   -4.6717    0.0523    0.0000 C   0  0  0  0  0  0  0  0  0  0  0  0
   -4.1302    1.3411    0.0005 C   0  0  0  0  0  0  0  0  0  0  0  0
   -2.7504    1.5090    0.0004 C   0  0  0  0  0  0  0  0  0  0  0  0
   -2.1730    2.8532    0.0004 C   0  0  0  0  0  0  0  0  0  0  0  0
   -0.8442    3.0492   -0.0000 C   0  0  0  0  0  0  0  0  0  0  0  0
    0.0963    1.9287   -0.0005 C   0  0  0  0  0  0  0  0  0  0  0  0
    1.4627    2.1652   -0.0005 C   0  0  0  0  0  0  0  0  0  0  0  0
    2.3605    1.0850   -0.0006 C   0  0  0  0  0  0  0  0  0  0  0  0
    3.7398    1.3178   -0.0000 C   0  0  0  0  0  0  0  0  0  0  0  0
    4.6215    0.2412    0.0004 C   0  0  0  0  0  0  0  0  0  0  0  0
    6.0191    0.4434    0.0005 C   0  0  0  0  0  0  0  0  0  0  0  0
    6.8509   -0.6290    0.0004 C   0  0  0  0  0  0  0  0  0  0  0  0
    6.3627   -1.9365    0.0002 C   0  0  0  0  0  0  0  0  0  0  0  0
    5.0316   -2.2017    0.0001 C   0  0  0  0  0  0  0  0  0  0  0  0
    4.1082   -1.1335    0.0002 C   0  0  0  0  0  0  0  0  0  0  0  0
    2.7362   -1.3690    0.0001 C   0  0  0  0  0  0  0  0  0  0  0  0
    1.8473   -0.2904   -0.0007 C   0  0  0  0  0  0  0  0  0  0  0  0
    0.4589   -0.5166   -0.0002 C   0  0  0  0  0  0  0  0  0  0  0  0
   -0.4114    0.5538   -0.0006 C   0  0  0  0  0  0  0  0  0  0  0  0
   -1.8702    0.3402   -0.0001 C   0  0  0  0  0  0  0  0  0  0  0  0
   -2.3980   -0.9381    0.0008 C   0  0  0  0  0  0  0  0  0  0  0  0
   -3.7868   -1.1143   -0.0010 C   0  0  0  0  0  0  0  0  0  0  0  0
   -3.7292   -3.2769    0.0028 H   0  0  0  0  0  0  0  0  0  0  0  0
   -6.1466   -3.5208   -0.0000 H   0  0  0  0  0  0  0  0  0  0  0  0
   -7.6252   -1.5724    0.0005 H   0  0  0  0  0  0  0  0  0  0  0  0
   -6.7398    0.6899    0.0005 H   0  0  0  0  0  0  0  0  0  0  0  0
   -4.7813    2.2028    0.0005 H   0  0  0  0  0  0  0  0  0  0  0  0
   -2.8316    3.7092    0.0004 H   0  0  0  0  0  0  0  0  0  0  0  0
   -0.4607    4.0588   -0.0004 H   0  0  0  0  0  0  0  0  0  0  0  0
    1.8361    3.1786   -0.0008 H   0  0  0  0  0  0  0  0  0  0  0  0
    4.1190    2.3291   -0.0002 H   0  0  0  0  0  0  0  0  0  0  0  0
    6.4234    1.4449    0.0003 H   0  0  0  0  0  0  0  0  0  0  0  0
    7.9186   -0.4663    0.0001 H   0  0  0  0  0  0  0  0  0  0  0  0
    7.0626   -2.7590   -0.0003 H   0  0  0  0  0  0  0  0  0  0  0  0
    4.6809   -3.2231   -0.0005 H   0  0  0  0  0  0  0  0  0  0  0  0
    2.3601   -2.3814   -0.0004 H   0  0  0  0  0  0  0  0  0  0  0  0
    0.0751   -1.5261    0.0000 H   0  0  0  0  0  0  0  0  0  0  0  0
   -1.7421   -1.7961    0.0003 H   0  0  0  0  0  0  0  0  0  0  0  0
  1  2  2  0  0  0  0
  2  3  1  0  0  0  0
  3  4  2  0  0  0  0
  4  5  1  0  0  0  0
  5  6  2  0  0  0  0
  6  7  1  0  0  0  0
  7  8  2  0  0  0  0
  8  9  1  0  0  0  0
  9 10  2  0  0  0  0
 10 11  1  0  0  0  0
 11 12  2  0  0  0  0
 12 13  1  0  0  0  0
 13 14  2  0  0  0  0
 14 15  1  0  0  0  0
 15 16  2  0  0  0  0
 16 17  1  0  0  0  0
 17 18  2  0  0  0  0
 18 19  1  0  0  0  0
 14 19  1  0  0  0  0
 19 20  2  0  0  0  0
 20 21  1  0  0  0  0
 12 21  1  0  0  0  0
 21 22  2  0  0  0  0
 22 23  1  0  0  0  0
 10 23  1  0  0  0  0
 23 24  2  0  0  0  0
  7 24  1  0  0  0  0
 24 25  1  0  0  0  0
 25 26  2  0  0  0  0
  1 26  1  0  0  0  0
  5 26  1  0  0  0  0
  1 27  1  0  0  0  0
  2 28  1  0  0  0  0
  3 29  1  0  0  0  0
  4 30  1  0  0  0  0
  6 31  1  0  0  0  0
  8 32  1  0  0  0  0
  9 33  1  0  0  0  0
 11 34  1  0  0  0  0
 13 35  1  0  0  0  0
 15 36  1  0  0  0  0
 16 37  1  0  0  0  0
 17 38  1  0  0  0  0
 18 39  1  0  0  0  0
 20 40  1  0  0  0  0
 22 41  1  0  0  0  0
 25 42  1  0  0  0  0
M  END
$$$$
