C24H12
APtclcactv01171906273D 0   0.00000     0.00000
 
 36 42  0  0  0  0  0  0  0  0999 V2000
   -3.6646    0.5781   -0.0003 C   0  0  0  0  0  0  0  0  0  0  0  0
   -3.2155   -1.8505   -0.0007 C   0  0  0  0  0  0  0  0  0  0  0  0
   -0.0051   -3.7099   -0.0004 C   0  0  0  0  0  0  0  0  0  0  0  0
   -2.3329   -2.8846   -0.0012 C   0  0  0  0  0  0  0  0  0  0  0  0
   -1.3316    3.4626   -0.0004 C   0  0  0  0  0  0  0  0  0  0  0  0
   -3.2103    1.8594    0.0001 C   0  0  0  0  0  0  0  0  0  0  0  0
    3.2103   -1.8594   -0.0000 C   0  0  0  0  0  0  0  0  0  0  0  0
    1.3317   -3.4626    0.0010 C   0  0  0  0  0  0  0  0  0  0  0  0
    2.3329    2.8845    0.0000 C   0  0  0  0  0  0  0  0  0  0  0  0
    0.0052    3.7099   -0.0002 C   0  0  0  0  0  0  0  0  0  0  0  0
    3.2155    1.8504   -0.0009 C   0  0  0  0  0  0  0  0  0  0  0  0
    3.6646   -0.5781   -0.0006 C   0  0  0  0  0  0  0  0  0  0  0  0
   -2.7735   -0.5129    0.0001 C   0  0  0  0  0  0  0  0  0  0  0  0
   -0.9425   -2.6583   -0.0005 C   0  0  0  0  0  0  0  0  0  0  0  0
   -1.8309    2.1454    0.0003 C   0  0  0  0  0  0  0  0  0  0  0  0
    1.8309   -2.1454    0.0002 C   0  0  0  0  0  0  0  0  0  0  0  0
    0.9425    2.6583   -0.0002 C   0  0  0  0  0  0  0  0  0  0  0  0
    2.7734    0.5129   -0.0002 C   0  0  0  0  0  0  0  0  0  0  0  0
   -0.4710   -1.3285    0.0008 C   0  0  0  0  0  0  0  0  0  0  0  0
   -1.3860   -0.2563    0.0009 C   0  0  0  0  0  0  0  0  0  0  0  0
   -0.9150    1.0721    0.0007 C   0  0  0  0  0  0  0  0  0  0  0  0
    0.9150   -1.0721    0.0011 C   0  0  0  0  0  0  0  0  0  0  0  0
    0.4710    1.3284    0.0005 C   0  0  0  0  0  0  0  0  0  0  0  0
    1.3860    0.2563    0.0005 C   0  0  0  0  0  0  0  0  0  0  0  0
   -4.7287    0.3932    0.0038 H   0  0  0  0  0  0  0  0  0  0  0  0
   -4.2753   -2.0583   -0.0013 H   0  0  0  0  0  0  0  0  0  0  0  0
   -0.3550   -4.7316   -0.0017 H   0  0  0  0  0  0  0  0  0  0  0  0
   -2.7048   -3.8986   -0.0022 H   0  0  0  0  0  0  0  0  0  0  0  0
   -2.0238    4.2917   -0.0008 H   0  0  0  0  0  0  0  0  0  0  0  0
   -3.9202    2.6734   -0.0002 H   0  0  0  0  0  0  0  0  0  0  0  0
    3.9202   -2.6733   -0.0010 H   0  0  0  0  0  0  0  0  0  0  0  0
    2.0239   -4.2916    0.0003 H   0  0  0  0  0  0  0  0  0  0  0  0
    2.7048    3.8985   -0.0005 H   0  0  0  0  0  0  0  0  0  0  0  0
    0.3551    4.7316   -0.0007 H   0  0  0  0  0  0  0  0  0  0  0  0
    4.2753    2.0583   -0.0015 H   0  0  0  0  0  0  0  0  0  0  0  0
    4.7287   -0.3931   -0.0011 H   0  0  0  0  0  0  0  0  0  0  0  0
 19 20  2  0  0  0  0
 19 22  1  0  0  0  0
 14 19  1  0  0  0  0
 20 21  1  0  0  0  0
 13 20  1  0  0  0  0
 21 23  2  0  0  0  0
 15 21  1  0  0  0  0
  1 13  2  0  0  0  0
  2 13  1  0  0  0  0
 22 24  2  0  0  0  0
 16 22  1  0  0  0  0
  3 14  2  0  0  0  0
  4 14  1  0  0  0  0
 23 24  1  0  0  0  0
 17 23  1  0  0  0  0
  5 15  1  0  0  0  0
  6 15  2  0  0  0  0
  1  6  1  0  0  0  0
  2  4  2  0  0  0  0
 18 24  1  0  0  0  0
  7 16  1  0  0  0  0
  8 16  2  0  0  0  0
  3  8  1  0  0  0  0
  9 17  2  0  0  0  0
 10 17  1  0  0  0  0
  5 10  2  0  0  0  0
 11 18  2  0  0  0  0
 12 18  1  0  0  0  0
  7 12  2  0  0  0  0
  9 11  1  0  0  0  0
  1 25  1  0  0  0  0
  2 26  1  0  0  0  0
  3 27  1  0  0  0  0
  4 28  1  0  0  0  0
  5 29  1  0  0  0  0
  6 30  1  0  0  0  0
  7 31  1  0  0  0  0
  8 32  1  0  0  0  0
  9 33  1  0  0  0  0
 10 34  1  0  0  0  0
 11 35  1  0  0  0  0
 12 36  1  0  0  0  0
M  END
$$$$
