C16H10
APtclcactv01171906273D 0   0.00000     0.00000
 
 26 29  0  0  0  0  0  0  0  0999 V2000
    0.7714    2.3565    0.0011 C   0  0  0  0  0  0  0  0  0  0  0  0
    0.7713   -2.3565    0.0013 C   0  0  0  0  0  0  0  0  0  0  0  0
    2.9646    1.2414   -0.0010 C   0  0  0  0  0  0  0  0  0  0  0  0
    2.9646   -1.2415   -0.0026 C   0  0  0  0  0  0  0  0  0  0  0  0
   -2.5742    1.3920   -0.0008 C   0  0  0  0  0  0  0  0  0  0  0  0
    2.1672    2.3925    0.0005 C   0  0  0  0  0  0  0  0  0  0  0  0
   -2.5741   -1.3920    0.0005 C   0  0  0  0  0  0  0  0  0  0  0  0
    2.1671   -2.3925    0.0005 C   0  0  0  0  0  0  0  0  0  0  0  0
   -3.7136    0.7365   -0.0012 C   0  0  0  0  0  0  0  0  0  0  0  0
   -3.7136   -0.7365   -0.0011 C   0  0  0  0  0  0  0  0  0  0  0  0
    0.0991    1.1369    0.0009 C   0  0  0  0  0  0  0  0  0  0  0  0
    0.0990   -1.1368    0.0008 C   0  0  0  0  0  0  0  0  0  0  0  0
   -1.2937    0.6640    0.0004 C   0  0  0  0  0  0  0  0  0  0  0  0
   -1.2937   -0.6639    0.0007 C   0  0  0  0  0  0  0  0  0  0  0  0
    2.3347   -0.0001   -0.0007 C   0  0  0  0  0  0  0  0  0  0  0  0
    0.8771    0.0000    0.0005 C   0  0  0  0  0  0  0  0  0  0  0  0
    0.2102    3.2792    0.0064 H   0  0  0  0  0  0  0  0  0  0  0  0
    0.2100   -3.2792    0.0021 H   0  0  0  0  0  0  0  0  0  0  0  0
    4.0421    1.3150   -0.0022 H   0  0  0  0  0  0  0  0  0  0  0  0
    4.0421   -1.3151   -0.0035 H   0  0  0  0  0  0  0  0  0  0  0  0
   -2.5769    2.4720   -0.0016 H   0  0  0  0  0  0  0  0  0  0  0  0
    2.6559    3.3556    0.0008 H   0  0  0  0  0  0  0  0  0  0  0  0
   -2.5769   -2.4720    0.0021 H   0  0  0  0  0  0  0  0  0  0  0  0
    2.6557   -3.3557    0.0006 H   0  0  0  0  0  0  0  0  0  0  0  0
   -4.6485    1.2772   -0.0022 H   0  0  0  0  0  0  0  0  0  0  0  0
   -4.6484   -1.2772   -0.0021 H   0  0  0  0  0  0  0  0  0  0  0  0
 11 16  1  0  0  0  0
 12 16  2  0  0  0  0
 15 16  1  0  0  0  0
 11 13  1  0  0  0  0
  1 11  2  0  0  0  0
 12 14  1  0  0  0  0
  2 12  1  0  0  0  0
  3 15  1  0  0  0  0
  4 15  2  0  0  0  0
  5 13  1  0  0  0  0
  1  6  1  0  0  0  0
  7 14  1  0  0  0  0
  2  8  2  0  0  0  0
  5  9  2  0  0  0  0
  7 10  2  0  0  0  0
 13 14  2  0  0  0  0
  3  6  2  0  0  0  0
  4  8  1  0  0  0  0
  9 10  1  0  0  0  0
  1 17  1  0  0  0  0
  2 18  1  0  0  0  0
  3 19  1  0  0  0  0
  4 20  1  0  0  0  0
  5 21  1  0  0  0  0
  6 22  1  0  0  0  0
  7 23  1  0  0  0  0
  8 24  1  0  0  0  0
  9 25  1  0  0  0  0
 10 26  1  0  0  0  0
M  END
$$$$
