C22H12
APtclcactv01171906273D 0   0.00000     0.00000
 
 34 39  0  0  0  0  0  0  0  0999 V2000
   -4.0530   -1.3887   -0.0036 C   0  0  0  0  0  0  0  0  0  0  0  0
   -5.2454   -0.6918   -0.0093 C   0  0  0  0  0  0  0  0  0  0  0  0
   -5.2454    0.6917   -0.0113 C   0  0  0  0  0  0  0  0  0  0  0  0
   -4.0530    1.3886   -0.0059 C   0  0  0  0  0  0  0  0  0  0  0  0
   -2.8398    0.7108    0.0000 C   0  0  0  0  0  0  0  0  0  0  0  0
   -2.8397   -0.7108    0.0006 C   0  0  0  0  0  0  0  0  0  0  0  0
   -1.4392   -1.1768    0.0048 C   0  0  0  0  0  0  0  0  0  0  0  0
   -0.7016   -2.3488    0.0075 C   0  0  0  0  0  0  0  0  0  0  0  0
    0.7015   -2.3489    0.0077 C   0  0  0  0  0  0  0  0  0  0  0  0
    1.4391   -1.1768    0.0044 C   0  0  0  0  0  0  0  0  0  0  0  0
    2.8397   -0.7108   -0.0004 C   0  0  0  0  0  0  0  0  0  0  0  0
    4.0531   -1.3888   -0.0050 C   0  0  0  0  0  0  0  0  0  0  0  0
    5.2455   -0.6918   -0.0102 C   0  0  0  0  0  0  0  0  0  0  0  0
    5.2455    0.6917   -0.0098 C   0  0  0  0  0  0  0  0  0  0  0  0
    4.0531    1.3888   -0.0046 C   0  0  0  0  0  0  0  0  0  0  0  0
    2.8398    0.7108    0.0001 C   0  0  0  0  0  0  0  0  0  0  0  0
    1.4391    1.1768    0.0049 C   0  0  0  0  0  0  0  0  0  0  0  0
    0.7016    2.3489    0.0088 C   0  0  0  0  0  0  0  0  0  0  0  0
   -0.7016    2.3488    0.0081 C   0  0  0  0  0  0  0  0  0  0  0  0
   -1.4392    1.1768    0.0049 C   0  0  0  0  0  0  0  0  0  0  0  0
   -0.6823    0.0000    0.0054 C   0  0  0  0  0  0  0  0  0  0  0  0
    0.6822    0.0000    0.0052 C   0  0  0  0  0  0  0  0  0  0  0  0
   -4.0635   -2.4686    0.0022 H   0  0  0  0  0  0  0  0  0  0  0  0
   -6.1821   -1.2293   -0.0126 H   0  0  0  0  0  0  0  0  0  0  0  0
   -6.1822    1.2292   -0.0176 H   0  0  0  0  0  0  0  0  0  0  0  0
   -4.0635    2.4686   -0.0066 H   0  0  0  0  0  0  0  0  0  0  0  0
   -1.2237   -3.2942    0.0098 H   0  0  0  0  0  0  0  0  0  0  0  0
    1.2236   -3.2943    0.0109 H   0  0  0  0  0  0  0  0  0  0  0  0
    4.0635   -2.4687   -0.0040 H   0  0  0  0  0  0  0  0  0  0  0  0
    6.1822   -1.2293   -0.0143 H   0  0  0  0  0  0  0  0  0  0  0  0
    6.1823    1.2292   -0.0133 H   0  0  0  0  0  0  0  0  0  0  0  0
    4.0635    2.4687   -0.0042 H   0  0  0  0  0  0  0  0  0  0  0  0
    1.2236    3.2943    0.0129 H   0  0  0  0  0  0  0  0  0  0  0  0
   -1.2237    3.2942    0.0127 H   0  0  0  0  0  0  0  0  0  0  0  0
  1  2  2  0  0  0  0
  2  3  1  0  0  0  0
  3  4  2  0  0  0  0
  4  5  1  0  0  0  0
  5  6  2  0  0  0  0
  1  6  1  0  0  0  0
  6  7  1  0  0  0  0
  7  8  1  0  0  0  0
  8  9  2  0  0  0  0
  9 10  1  0  0  0  0
 10 11  1  0  0  0  0
 11 12  2  0  0  0  0
 12 13  1  0  0  0  0
 13 14  2  0  0  0  0
 14 15  1  0  0  0  0
 15 16  2  0  0  0  0
 11 16  1  0  0  0  0
 16 17  1  0  0  0  0
 17 18  2  0  0  0  0
 18 19  1  0  0  0  0
 19 20  2  0  0  0  0
  5 20  1  0  0  0  0
 20 21  1  0  0  0  0
  7 21  2  0  0  0  0
 21 22  1  0  0  0  0
 10 22  2  0  0  0  0
 17 22  1  0  0  0  0
  1 23  1  0  0  0  0
  2 24  1  0  0  0  0
  3 25  1  0  0  0  0
  4 26  1  0  0  0  0
  8 27  1  0  0  0  0
  9 28  1  0  0  0  0
 12 29  1  0  0  0  0
 13 30  1  0  0  0  0
 14 31  1  0  0  0  0
 15 32  1  0  0  0  0
 18 33  1  0  0  0  0
 19 34  1  0  0  0  0
M  END
$$$$
