C20H12
APtclcactv01171906273D 0   0.00000     0.00000
 
 32 36  0  0  0  0  0  0  0  0999 V2000
   -1.5134   -2.3511   -0.0006 C   0  0  0  0  0  0  0  0  0  0  0  0
   -2.8880   -2.5472   -0.0004 C   0  0  0  0  0  0  0  0  0  0  0  0
   -3.7516   -1.4898    0.0005 C   0  0  0  0  0  0  0  0  0  0  0  0
   -3.2594   -0.1734    0.0007 C   0  0  0  0  0  0  0  0  0  0  0  0
   -4.1281    0.9328    0.0006 C   0  0  0  0  0  0  0  0  0  0  0  0
   -3.6158    2.2094    0.0004 C   0  0  0  0  0  0  0  0  0  0  0  0
   -2.2488    2.4358   -0.0004 C   0  0  0  0  0  0  0  0  0  0  0  0
   -1.3523    1.3634   -0.0003 C   0  0  0  0  0  0  0  0  0  0  0  0
    0.0429    1.6007   -0.0006 C   0  0  0  0  0  0  0  0  0  0  0  0
    0.9379    0.5745   -0.0005 C   0  0  0  0  0  0  0  0  0  0  0  0
    0.4623   -0.8217   -0.0003 C   0  0  0  0  0  0  0  0  0  0  0  0
   -0.9909   -1.0657    0.0000 C   0  0  0  0  0  0  0  0  0  0  0  0
   -1.8624    0.0437    0.0004 C   0  0  0  0  0  0  0  0  0  0  0  0
    1.5561   -1.6504   -0.0003 C   0  0  0  0  0  0  0  0  0  0  0  0
    2.7755   -0.8471   -0.0005 C   0  0  0  0  0  0  0  0  0  0  0  0
    4.1331   -1.1941    0.0003 C   0  0  0  0  0  0  0  0  0  0  0  0
    5.0932   -0.2077    0.0009 C   0  0  0  0  0  0  0  0  0  0  0  0
    4.7307    1.1318    0.0006 C   0  0  0  0  0  0  0  0  0  0  0  0
    3.4003    1.4979   -0.0001 C   0  0  0  0  0  0  0  0  0  0  0  0
    2.4112    0.5188   -0.0007 C   0  0  0  0  0  0  0  0  0  0  0  0
   -0.8484   -3.2021    0.0032 H   0  0  0  0  0  0  0  0  0  0  0  0
   -3.2807   -3.5533   -0.0013 H   0  0  0  0  0  0  0  0  0  0  0  0
   -4.8171   -1.6656    0.0007 H   0  0  0  0  0  0  0  0  0  0  0  0
   -5.1972    0.7799    0.0005 H   0  0  0  0  0  0  0  0  0  0  0  0
   -4.2921    3.0515    0.0003 H   0  0  0  0  0  0  0  0  0  0  0  0
   -1.8732    3.4484   -0.0013 H   0  0  0  0  0  0  0  0  0  0  0  0
    0.4056    2.6180   -0.0012 H   0  0  0  0  0  0  0  0  0  0  0  0
    1.5206   -2.7298    0.0005 H   0  0  0  0  0  0  0  0  0  0  0  0
    4.4256   -2.2338    0.0008 H   0  0  0  0  0  0  0  0  0  0  0  0
    6.1387   -0.4788    0.0018 H   0  0  0  0  0  0  0  0  0  0  0  0
    5.4959    1.8939    0.0015 H   0  0  0  0  0  0  0  0  0  0  0  0
    3.1270    2.5427    0.0001 H   0  0  0  0  0  0  0  0  0  0  0  0
  1  2  2  0  0  0  0
  2  3  1  0  0  0  0
  3  4  2  0  0  0  0
  4  5  1  0  0  0  0
  5  6  2  0  0  0  0
  6  7  1  0  0  0  0
  7  8  2  0  0  0  0
  8  9  1  0  0  0  0
  9 10  2  0  0  0  0
 10 11  1  0  0  0  0
 11 12  1  0  0  0  0
  1 12  1  0  0  0  0
 12 13  2  0  0  0  0
  8 13  1  0  0  0  0
  4 13  1  0  0  0  0
 11 14  2  0  0  0  0
 14 15  1  0  0  0  0
 15 16  1  0  0  0  0
 16 17  2  0  0  0  0
 17 18  1  0  0  0  0
 18 19  2  0  0  0  0
 19 20  1  0  0  0  0
 15 20  2  0  0  0  0
 10 20  1  0  0  0  0
  1 21  1  0  0  0  0
  2 22  1  0  0  0  0
  3 23  1  0  0  0  0
  5 24  1  0  0  0  0
  6 25  1  0  0  0  0
  7 26  1  0  0  0  0
  9 27  1  0  0  0  0
 14 28  1  0  0  0  0
 16 29  1  0  0  0  0
 17 30  1  0  0  0  0
 18 31  1  0  0  0  0
 19 32  1  0  0  0  0
M  END
$$$$
