C20H12
APtclcactv01171906273D 0   0.00000     0.00000
 
 32 36  0  0  0  0  0  0  0  0999 V2000
   -0.4863   -2.1115   -0.0006 C   0  0  0  0  0  0  0  0  0  0  0  0
   -1.6659   -2.8381   -0.0007 C   0  0  0  0  0  0  0  0  0  0  0  0
   -2.8885   -2.2041   -0.0004 C   0  0  0  0  0  0  0  0  0  0  0  0
   -2.9569   -0.8000   -0.0001 C   0  0  0  0  0  0  0  0  0  0  0  0
   -4.1950   -0.1319    0.0002 C   0  0  0  0  0  0  0  0  0  0  0  0
   -4.2373    1.2455    0.0005 C   0  0  0  0  0  0  0  0  0  0  0  0
   -3.0775    1.9977    0.0006 C   0  0  0  0  0  0  0  0  0  0  0  0
   -1.8213    1.3689    0.0003 C   0  0  0  0  0  0  0  0  0  0  0  0
   -0.6471    2.1417   -0.0001 C   0  0  0  0  0  0  0  0  0  0  0  0
    0.6099    1.5412   -0.0003 C   0  0  0  0  0  0  0  0  0  0  0  0
    0.7127    0.0747   -0.0001 C   0  0  0  0  0  0  0  0  0  0  0  0
   -0.5192   -0.7172    0.0002 C   0  0  0  0  0  0  0  0  0  0  0  0
   -1.7612   -0.0462    0.0005 C   0  0  0  0  0  0  0  0  0  0  0  0
    2.0764   -0.2485   -0.0003 C   0  0  0  0  0  0  0  0  0  0  0  0
    2.7902   -1.4598    0.0005 C   0  0  0  0  0  0  0  0  0  0  0  0
    4.1494   -1.4413    0.0009 C   0  0  0  0  0  0  0  0  0  0  0  0
    4.8658   -0.2433    0.0005 C   0  0  0  0  0  0  0  0  0  0  0  0
    4.2406    0.9613   -0.0003 C   0  0  0  0  0  0  0  0  0  0  0  0
    2.8283    1.0165   -0.0007 C   0  0  0  0  0  0  0  0  0  0  0  0
    1.9190    2.0668   -0.0007 C   0  0  0  0  0  0  0  0  0  0  0  0
    0.4628   -2.6270    0.0034 H   0  0  0  0  0  0  0  0  0  0  0  0
   -1.6262   -3.9174   -0.0013 H   0  0  0  0  0  0  0  0  0  0  0  0
   -3.7974   -2.7874   -0.0009 H   0  0  0  0  0  0  0  0  0  0  0  0
   -5.1138   -0.6994   -0.0002 H   0  0  0  0  0  0  0  0  0  0  0  0
   -5.1941    1.7464    0.0004 H   0  0  0  0  0  0  0  0  0  0  0  0
   -3.1375    3.0760    0.0004 H   0  0  0  0  0  0  0  0  0  0  0  0
   -0.7207    3.2192   -0.0007 H   0  0  0  0  0  0  0  0  0  0  0  0
    2.2607   -2.4011    0.0011 H   0  0  0  0  0  0  0  0  0  0  0  0
    4.6886   -2.3771    0.0018 H   0  0  0  0  0  0  0  0  0  0  0  0
    5.9453   -0.2758    0.0012 H   0  0  0  0  0  0  0  0  0  0  0  0
    4.8194    1.8731   -0.0002 H   0  0  0  0  0  0  0  0  0  0  0  0
    2.1733    3.1165   -0.0002 H   0  0  0  0  0  0  0  0  0  0  0  0
  1  2  2  0  0  0  0
  2  3  1  0  0  0  0
  3  4  2  0  0  0  0
  4  5  1  0  0  0  0
  5  6  2  0  0  0  0
  6  7  1  0  0  0  0
  7  8  2  0  0  0  0
  8  9  1  0  0  0  0
  9 10  2  0  0  0  0
 10 11  1  0  0  0  0
 11 12  1  0  0  0  0
  1 12  1  0  0  0  0
 12 13  2  0  0  0  0
  8 13  1  0  0  0  0
  4 13  1  0  0  0  0
 11 14  2  0  0  0  0
 14 15  1  0  0  0  0
 15 16  2  0  0  0  0
 16 17  1  0  0  0  0
 17 18  2  0  0  0  0
 18 19  1  0  0  0  0
 14 19  1  0  0  0  0
 19 20  2  0  0  0  0
 10 20  1  0  0  0  0
  1 21  1  0  0  0  0
  2 22  1  0  0  0  0
  3 23  1  0  0  0  0
  5 24  1  0  0  0  0
  6 25  1  0  0  0  0
  7 26  1  0  0  0  0
  9 27  1  0  0  0  0
 15 28  1  0  0  0  0
 16 29  1  0  0  0  0
 17 30  1  0  0  0  0
 18 31  1  0  0  0  0
 20 32  1  0  0  0  0
M  END
$$$$
