C22H12
APtclcactv01171906283D 0   0.00000     0.00000
 
 34 39  0  0  0  0  0  0  0  0999 V2000
   -2.8485   -1.9996    0.0058 C   0  0  0  0  0  0  0  0  0  0  0  0
   -4.1858   -1.7357    0.0067 C   0  0  0  0  0  0  0  0  0  0  0  0
   -4.6542   -0.4260    0.0015 C   0  0  0  0  0  0  0  0  0  0  0  0
   -3.7845    0.6243   -0.0025 C   0  0  0  0  0  0  0  0  0  0  0  0
   -2.4052    0.3911   -0.0016 C   0  0  0  0  0  0  0  0  0  0  0  0
   -1.4551    1.5060   -0.0029 C   0  0  0  0  0  0  0  0  0  0  0  0
   -0.1105    1.1672   -0.0011 C   0  0  0  0  0  0  0  0  0  0  0  0
    0.3948   -0.1257   -0.0008 C   0  0  0  0  0  0  0  0  0  0  0  0
    1.7915   -0.2862    0.0004 C   0  0  0  0  0  0  0  0  0  0  0  0
    2.6307    0.8543    0.0043 C   0  0  0  0  0  0  0  0  0  0  0  0
    4.0173    0.6413    0.0058 C   0  0  0  0  0  0  0  0  0  0  0  0
    4.5226   -0.6449    0.0015 C   0  0  0  0  0  0  0  0  0  0  0  0
    3.7044   -1.7577   -0.0034 C   0  0  0  0  0  0  0  0  0  0  0  0
    2.3124   -1.5986   -0.0030 C   0  0  0  0  0  0  0  0  0  0  0  0
    1.4188   -2.6918   -0.0053 C   0  0  0  0  0  0  0  0  0  0  0  0
    0.0680   -2.5158   -0.0041 C   0  0  0  0  0  0  0  0  0  0  0  0
   -0.4853   -1.2258   -0.0012 C   0  0  0  0  0  0  0  0  0  0  0  0
   -1.9243   -0.9475    0.0006 C   0  0  0  0  0  0  0  0  0  0  0  0
    2.0951    2.1676    0.0051 C   0  0  0  0  0  0  0  0  0  0  0  0
    0.7256    2.3604    0.0013 C   0  0  0  0  0  0  0  0  0  0  0  0
   -0.2288    3.4674   -0.0023 C   0  0  0  0  0  0  0  0  0  0  0  0
   -1.4960    2.9611   -0.0053 C   0  0  0  0  0  0  0  0  0  0  0  0
   -2.5010   -3.0221    0.0137 H   0  0  0  0  0  0  0  0  0  0  0  0
   -4.8906   -2.5540    0.0110 H   0  0  0  0  0  0  0  0  0  0  0  0
   -5.7179   -0.2390    0.0003 H   0  0  0  0  0  0  0  0  0  0  0  0
   -4.1608    1.6366   -0.0068 H   0  0  0  0  0  0  0  0  0  0  0  0
    4.6917    1.4849    0.0099 H   0  0  0  0  0  0  0  0  0  0  0  0
    5.5935   -0.7848    0.0016 H   0  0  0  0  0  0  0  0  0  0  0  0
    4.1363   -2.7476   -0.0078 H   0  0  0  0  0  0  0  0  0  0  0  0
    1.8174   -3.6956   -0.0085 H   0  0  0  0  0  0  0  0  0  0  0  0
   -0.5836   -3.3772   -0.0055 H   0  0  0  0  0  0  0  0  0  0  0  0
    2.7587    3.0197    0.0092 H   0  0  0  0  0  0  0  0  0  0  0  0
    0.0276    4.5165   -0.0033 H   0  0  0  0  0  0  0  0  0  0  0  0
   -2.3986    3.5542   -0.0085 H   0  0  0  0  0  0  0  0  0  0  0  0
  1  2  2  0  0  0  0
  2  3  1  0  0  0  0
  3  4  2  0  0  0  0
  4  5  1  0  0  0  0
  5  6  2  0  0  0  0
  6  7  1  0  0  0  0
  7  8  2  0  0  0  0
  8  9  1  0  0  0  0
  9 10  2  0  0  0  0
 10 11  1  0  0  0  0
 11 12  2  0  0  0  0
 12 13  1  0  0  0  0
 13 14  2  0  0  0  0
  9 14  1  0  0  0  0
 14 15  1  0  0  0  0
 15 16  2  0  0  0  0
 16 17  1  0  0  0  0
  8 17  1  0  0  0  0
 17 18  2  0  0  0  0
  1 18  1  0  0  0  0
  5 18  1  0  0  0  0
 10 19  1  0  0  0  0
 19 20  2  0  0  0  0
  7 20  1  0  0  0  0
 20 21  1  0  0  0  0
 21 22  2  0  0  0  0
  6 22  1  0  0  0  0
  1 23  1  0  0  0  0
  2 24  1  0  0  0  0
  3 25  1  0  0  0  0
  4 26  1  0  0  0  0
 11 27  1  0  0  0  0
 12 28  1  0  0  0  0
 13 29  1  0  0  0  0
 15 30  1  0  0  0  0
 16 31  1  0  0  0  0
 19 32  1  0  0  0  0
 21 33  1  0  0  0  0
 22 34  1  0  0  0  0
M  END
$$$$
