C24H14
APtclcactv01171906283D 0   0.00000     0.00000
 
 38 43  0  0  0  0  0  0  0  0999 V2000
   -2.6844   -2.1978   -0.0062 C   0  0  0  0  0  0  0  0  0  0  0  0
   -4.0206   -2.5678   -0.0020 C   0  0  0  0  0  0  0  0  0  0  0  0
   -5.0577   -1.6462    0.0043 C   0  0  0  0  0  0  0  0  0  0  0  0
   -4.7684   -0.2820    0.0062 C   0  0  0  0  0  0  0  0  0  0  0  0
   -5.5106    0.9790    0.0114 C   0  0  0  0  0  0  0  0  0  0  0  0
   -4.6469    2.0259    0.0087 C   0  0  0  0  0  0  0  0  0  0  0  0
   -3.2728    1.5124    0.0022 C   0  0  0  0  0  0  0  0  0  0  0  0
   -3.4151    0.0647    0.0012 C   0  0  0  0  0  0  0  0  0  0  0  0
   -2.3656   -0.8407   -0.0040 C   0  0  0  0  0  0  0  0  0  0  0  0
   -1.0073   -0.2776   -0.0059 C   0  0  0  0  0  0  0  0  0  0  0  0
    0.1024   -1.0929   -0.0070 C   0  0  0  0  0  0  0  0  0  0  0  0
    1.3907   -0.5277   -0.0053 C   0  0  0  0  0  0  0  0  0  0  0  0
    2.5193   -1.3506   -0.0019 C   0  0  0  0  0  0  0  0  0  0  0  0
    3.7899   -0.7808    0.0010 C   0  0  0  0  0  0  0  0  0  0  0  0
    4.9493   -1.5857    0.0066 C   0  0  0  0  0  0  0  0  0  0  0  0
    6.1730   -0.9976    0.0099 C   0  0  0  0  0  0  0  0  0  0  0  0
    6.3205    0.3898    0.0078 C   0  0  0  0  0  0  0  0  0  0  0  0
    5.2477    1.2217    0.0021 C   0  0  0  0  0  0  0  0  0  0  0  0
    3.9445    0.6785   -0.0013 C   0  0  0  0  0  0  0  0  0  0  0  0
    2.8225    1.5018   -0.0057 C   0  0  0  0  0  0  0  0  0  0  0  0
    1.5436    0.9329   -0.0068 C   0  0  0  0  0  0  0  0  0  0  0  0
    0.4067    1.7541   -0.0079 C   0  0  0  0  0  0  0  0  0  0  0  0
   -0.8654    1.1879   -0.0062 C   0  0  0  0  0  0  0  0  0  0  0  0
   -2.0012    2.0390   -0.0034 C   0  0  0  0  0  0  0  0  0  0  0  0
   -1.9059   -2.9463   -0.0066 H   0  0  0  0  0  0  0  0  0  0  0  0
   -4.2649   -3.6198   -0.0042 H   0  0  0  0  0  0  0  0  0  0  0  0
   -6.0837   -1.9835    0.0075 H   0  0  0  0  0  0  0  0  0  0  0  0
   -6.5872    1.0642    0.0163 H   0  0  0  0  0  0  0  0  0  0  0  0
   -4.9263    3.0691    0.0109 H   0  0  0  0  0  0  0  0  0  0  0  0
   -0.0163   -2.1663   -0.0088 H   0  0  0  0  0  0  0  0  0  0  0  0
    2.4070   -2.4248   -0.0011 H   0  0  0  0  0  0  0  0  0  0  0  0
    4.8635   -2.6623    0.0086 H   0  0  0  0  0  0  0  0  0  0  0  0
    7.0555   -1.6202    0.0146 H   0  0  0  0  0  0  0  0  0  0  0  0
    7.3141    0.8130    0.0111 H   0  0  0  0  0  0  0  0  0  0  0  0
    5.3902    2.2922    0.0005 H   0  0  0  0  0  0  0  0  0  0  0  0
    2.9381    2.5756   -0.0075 H   0  0  0  0  0  0  0  0  0  0  0  0
    0.5182    2.8284   -0.0106 H   0  0  0  0  0  0  0  0  0  0  0  0
   -1.8663    3.1106   -0.0054 H   0  0  0  0  0  0  0  0  0  0  0  0
  1  2  2  0  0  0  0
  2  3  1  0  0  0  0
  3  4  2  0  0  0  0
  4  5  1  0  0  0  0
  5  6  2  0  0  0  0
  6  7  1  0  0  0  0
  7  8  1  0  0  0  0
  4  8  1  0  0  0  0
  8  9  2  0  0  0  0
  1  9  1  0  0  0  0
  9 10  1  0  0  0  0
 10 11  2  0  0  0  0
 11 12  1  0  0  0  0
 12 13  2  0  0  0  0
 13 14  1  0  0  0  0
 14 15  2  0  0  0  0
 15 16  1  0  0  0  0
 16 17  2  0  0  0  0
 17 18  1  0  0  0  0
 18 19  2  0  0  0  0
 14 19  1  0  0  0  0
 19 20  1  0  0  0  0
 20 21  2  0  0  0  0
 12 21  1  0  0  0  0
 21 22  1  0  0  0  0
 22 23  2  0  0  0  0
 10 23  1  0  0  0  0
 23 24  1  0  0  0  0
  7 24  2  0  0  0  0
  1 25  1  0  0  0  0
  2 26  1  0  0  0  0
  3 27  1  0  0  0  0
  5 28  1  0  0  0  0
  6 29  1  0  0  0  0
 11 30  1  0  0  0  0
 13 31  1  0  0  0  0
 15 32  1  0  0  0  0
 16 33  1  0  0  0  0
 17 34  1  0  0  0  0
 18 35  1  0  0  0  0
 20 36  1  0  0  0  0
 22 37  1  0  0  0  0
 24 38  1  0  0  0  0
M  END
$$$$
