C22H12
APtclcactv01171906273D 0   0.00000     0.00000
 
 34 39  0  0  0  0  0  0  0  0999 V2000
   -2.8870   -2.2921   -0.0046 C   0  0  0  0  0  0  0  0  0  0  0  0
   -3.9035   -1.3706   -0.0056 C   0  0  0  0  0  0  0  0  0  0  0  0
   -3.6387    0.0083   -0.0024 C   0  0  0  0  0  0  0  0  0  0  0  0
   -2.2941    0.3713   -0.0003 C   0  0  0  0  0  0  0  0  0  0  0  0
   -1.2502   -0.5306    0.0012 C   0  0  0  0  0  0  0  0  0  0  0  0
    0.0583   -0.0268    0.0018 C   0  0  0  0  0  0  0  0  0  0  0  0
    0.2655    1.4242    0.0016 C   0  0  0  0  0  0  0  0  0  0  0  0
    1.5741    1.8984    0.0014 C   0  0  0  0  0  0  0  0  0  0  0  0
    2.6629    1.0102    0.0008 C   0  0  0  0  0  0  0  0  0  0  0  0
    3.9775    1.5209    0.0013 C   0  0  0  0  0  0  0  0  0  0  0  0
    5.0381    0.6689   -0.0019 C   0  0  0  0  0  0  0  0  0  0  0  0
    4.8494   -0.7102   -0.0056 C   0  0  0  0  0  0  0  0  0  0  0  0
    3.5929   -1.2417   -0.0052 C   0  0  0  0  0  0  0  0  0  0  0  0
    2.4784   -0.3976   -0.0007 C   0  0  0  0  0  0  0  0  0  0  0  0
    1.1220   -0.9431    0.0031 C   0  0  0  0  0  0  0  0  0  0  0  0
    0.8384   -2.3199    0.0067 C   0  0  0  0  0  0  0  0  0  0  0  0
   -0.4391   -2.7997    0.0076 C   0  0  0  0  0  0  0  0  0  0  0  0
   -1.5343   -1.9164   -0.0001 C   0  0  0  0  0  0  0  0  0  0  0  0
   -0.8439    2.3127    0.0013 C   0  0  0  0  0  0  0  0  0  0  0  0
   -2.1345    1.8171    0.0006 C   0  0  0  0  0  0  0  0  0  0  0  0
   -3.5082    2.3223   -0.0000 C   0  0  0  0  0  0  0  0  0  0  0  0
   -4.3738    1.2702   -0.0003 C   0  0  0  0  0  0  0  0  0  0  0  0
   -3.1361   -3.3430   -0.0028 H   0  0  0  0  0  0  0  0  0  0  0  0
   -4.9279   -1.7127   -0.0093 H   0  0  0  0  0  0  0  0  0  0  0  0
    1.7550    2.9631    0.0013 H   0  0  0  0  0  0  0  0  0  0  0  0
    4.1422    2.5882    0.0039 H   0  0  0  0  0  0  0  0  0  0  0  0
    6.0414    1.0685   -0.0020 H   0  0  0  0  0  0  0  0  0  0  0  0
    5.7070   -1.3666   -0.0090 H   0  0  0  0  0  0  0  0  0  0  0  0
    3.4593   -2.3134   -0.0085 H   0  0  0  0  0  0  0  0  0  0  0  0
    1.6593   -3.0217    0.0085 H   0  0  0  0  0  0  0  0  0  0  0  0
   -0.6109   -3.8660    0.0105 H   0  0  0  0  0  0  0  0  0  0  0  0
   -0.6779    3.3799    0.0019 H   0  0  0  0  0  0  0  0  0  0  0  0
   -3.7910    3.3646    0.0011 H   0  0  0  0  0  0  0  0  0  0  0  0
   -5.4503    1.3570   -0.0002 H   0  0  0  0  0  0  0  0  0  0  0  0
  1  2  2  0  0  0  0
  2  3  1  0  0  0  0
  3  4  2  0  0  0  0
  4  5  1  0  0  0  0
  5  6  2  0  0  0  0
  6  7  1  0  0  0  0
  7  8  2  0  0  0  0
  8  9  1  0  0  0  0
  9 10  2  0  0  0  0
 10 11  1  0  0  0  0
 11 12  2  0  0  0  0
 12 13  1  0  0  0  0
 13 14  2  0  0  0  0
  9 14  1  0  0  0  0
 14 15  1  0  0  0  0
  6 15  1  0  0  0  0
 15 16  2  0  0  0  0
 16 17  1  0  0  0  0
 17 18  2  0  0  0  0
  1 18  1  0  0  0  0
  5 18  1  0  0  0  0
  7 19  1  0  0  0  0
 19 20  2  0  0  0  0
  4 20  1  0  0  0  0
 20 21  1  0  0  0  0
 21 22  2  0  0  0  0
  3 22  1  0  0  0  0
  1 23  1  0  0  0  0
  2 24  1  0  0  0  0
  8 25  1  0  0  0  0
 10 26  1  0  0  0  0
 11 27  1  0  0  0  0
 12 28  1  0  0  0  0
 13 29  1  0  0  0  0
 16 30  1  0  0  0  0
 17 31  1  0  0  0  0
 19 32  1  0  0  0  0
 21 33  1  0  0  0  0
 22 34  1  0  0  0  0
M  END
$$$$
