C22H12
APtclcactv01171906273D 0   0.00000     0.00000
 
 34 39  0  0  0  0  0  0  0  0999 V2000
   -2.6806    2.3944    0.0055 C   0  0  0  0  0  0  0  0  0  0  0  0
   -3.6135    1.4074    0.0060 C   0  0  0  0  0  0  0  0  0  0  0  0
   -3.2604    0.0367    0.0024 C   0  0  0  0  0  0  0  0  0  0  0  0
   -4.2039   -0.9945    0.0002 C   0  0  0  0  0  0  0  0  0  0  0  0
   -3.7816   -2.3112   -0.0031 C   0  0  0  0  0  0  0  0  0  0  0  0
   -2.4450   -2.6602   -0.0039 C   0  0  0  0  0  0  0  0  0  0  0  0
   -1.4587   -1.6642   -0.0018 C   0  0  0  0  0  0  0  0  0  0  0  0
   -0.0771   -1.9920   -0.0011 C   0  0  0  0  0  0  0  0  0  0  0  0
    0.8693   -1.0054   -0.0008 C   0  0  0  0  0  0  0  0  0  0  0  0
    0.3955    0.3676   -0.0015 C   0  0  0  0  0  0  0  0  0  0  0  0
    1.4358    1.2890   -0.0032 C   0  0  0  0  0  0  0  0  0  0  0  0
    1.0691    2.6373   -0.0047 C   0  0  0  0  0  0  0  0  0  0  0  0
   -0.2632    3.0180   -0.0019 C   0  0  0  0  0  0  0  0  0  0  0  0
   -1.3033    2.0818    0.0007 C   0  0  0  0  0  0  0  0  0  0  0  0
   -0.9435    0.7144   -0.0002 C   0  0  0  0  0  0  0  0  0  0  0  0
   -1.8939   -0.3177   -0.0004 C   0  0  0  0  0  0  0  0  0  0  0  0
    2.6766    0.4912   -0.0019 C   0  0  0  0  0  0  0  0  0  0  0  0
    4.0203    0.8612   -0.0029 C   0  0  0  0  0  0  0  0  0  0  0  0
    5.0088   -0.0999    0.0009 C   0  0  0  0  0  0  0  0  0  0  0  0
    4.6790   -1.4451    0.0049 C   0  0  0  0  0  0  0  0  0  0  0  0
    3.3568   -1.8381    0.0054 C   0  0  0  0  0  0  0  0  0  0  0  0
    2.3406   -0.8875    0.0013 C   0  0  0  0  0  0  0  0  0  0  0  0
   -2.9947    3.4277    0.0042 H   0  0  0  0  0  0  0  0  0  0  0  0
   -4.6592    1.6773    0.0096 H   0  0  0  0  0  0  0  0  0  0  0  0
   -5.2589   -0.7638    0.0014 H   0  0  0  0  0  0  0  0  0  0  0  0
   -4.5240   -3.0956   -0.0047 H   0  0  0  0  0  0  0  0  0  0  0  0
   -2.1596   -3.7018   -0.0058 H   0  0  0  0  0  0  0  0  0  0  0  0
    0.2282   -3.0280   -0.0005 H   0  0  0  0  0  0  0  0  0  0  0  0
    1.8377    3.3961   -0.0076 H   0  0  0  0  0  0  0  0  0  0  0  0
   -0.5065    4.0703   -0.0023 H   0  0  0  0  0  0  0  0  0  0  0  0
    4.2890    1.9072   -0.0070 H   0  0  0  0  0  0  0  0  0  0  0  0
    6.0469    0.1980    0.0005 H   0  0  0  0  0  0  0  0  0  0  0  0
    5.4609   -2.1901    0.0072 H   0  0  0  0  0  0  0  0  0  0  0  0
    3.1089   -2.8892    0.0086 H   0  0  0  0  0  0  0  0  0  0  0  0
  1  2  2  0  0  0  0
  2  3  1  0  0  0  0
  3  4  1  0  0  0  0
  4  5  2  0  0  0  0
  5  6  1  0  0  0  0
  6  7  2  0  0  0  0
  7  8  1  0  0  0  0
  8  9  2  0  0  0  0
  9 10  1  0  0  0  0
 10 11  2  0  0  0  0
 11 12  1  0  0  0  0
 12 13  2  0  0  0  0
 13 14  1  0  0  0  0
  1 14  1  0  0  0  0
 14 15  2  0  0  0  0
 10 15  1  0  0  0  0
 15 16  1  0  0  0  0
  7 16  1  0  0  0  0
  3 16  2  0  0  0  0
 11 17  1  0  0  0  0
 17 18  2  0  0  0  0
 18 19  1  0  0  0  0
 19 20  2  0  0  0  0
 20 21  1  0  0  0  0
 21 22  2  0  0  0  0
 17 22  1  0  0  0  0
  9 22  1  0  0  0  0
  1 23  1  0  0  0  0
  2 24  1  0  0  0  0
  4 25  1  0  0  0  0
  5 26  1  0  0  0  0
  6 27  1  0  0  0  0
  8 28  1  0  0  0  0
 12 29  1  0  0  0  0
 13 30  1  0  0  0  0
 18 31  1  0  0  0  0
 19 32  1  0  0  0  0
 20 33  1  0  0  0  0
 21 34  1  0  0  0  0
M  END
$$$$
