C17H12
APtclcactv01171906283D 0   0.00000     0.00000
 
 29 32  0  0  0  0  0  0  0  0999 V2000
    0.6349   -1.1400   -0.0003 C   0  0  0  0  0  0  0  0  0  0  0  0
   -2.6422   -1.5670    0.0002 C   0  0  0  0  0  0  0  0  0  0  0  0
    1.1745    1.6092    0.0002 C   0  0  0  0  0  0  0  0  0  0  0  0
   -3.8759    0.9153    0.0000 C   0  0  0  0  0  0  0  0  0  0  0  0
   -4.0184   -1.4779    0.0005 C   0  0  0  0  0  0  0  0  0  0  0  0
    3.0358   -1.6114   -0.0004 C   0  0  0  0  0  0  0  0  0  0  0  0
   -4.6365   -0.2402   -0.0001 C   0  0  0  0  0  0  0  0  0  0  0  0
    3.5754    1.1311    0.0006 C   0  0  0  0  0  0  0  0  0  0  0  0
    4.3157   -1.1494   -0.0002 C   0  0  0  0  0  0  0  0  0  0  0  0
    4.5850    0.2181    0.0004 C   0  0  0  0  0  0  0  0  0  0  0  0
   -1.4261    1.8969   -0.0002 C   0  0  0  0  0  0  0  0  0  0  0  0
   -0.3957   -0.2136    0.0000 C   0  0  0  0  0  0  0  0  0  0  0  0
   -1.8681   -0.4047   -0.0001 C   0  0  0  0  0  0  0  0  0  0  0  0
   -0.1073    1.1605    0.0000 C   0  0  0  0  0  0  0  0  0  0  0  0
   -2.4987    0.8359   -0.0002 C   0  0  0  0  0  0  0  0  0  0  0  0
    1.9658   -0.6984   -0.0005 C   0  0  0  0  0  0  0  0  0  0  0  0
    2.2405    0.6928   -0.0005 C   0  0  0  0  0  0  0  0  0  0  0  0
    0.4141   -2.1971    0.0042 H   0  0  0  0  0  0  0  0  0  0  0  0
   -2.1634   -2.5351    0.0007 H   0  0  0  0  0  0  0  0  0  0  0  0
   -1.5105    2.5152    0.8935 H   0  0  0  0  0  0  0  0  0  0  0  0
   -1.5103    2.5152   -0.8939 H   0  0  0  0  0  0  0  0  0  0  0  0
    1.3749    2.6704    0.0001 H   0  0  0  0  0  0  0  0  0  0  0  0
   -4.3607    1.8804   -0.0001 H   0  0  0  0  0  0  0  0  0  0  0  0
   -4.6158   -2.3776    0.0004 H   0  0  0  0  0  0  0  0  0  0  0  0
    2.8425   -2.6740   -0.0008 H   0  0  0  0  0  0  0  0  0  0  0  0
   -5.7146   -0.1760   -0.0002 H   0  0  0  0  0  0  0  0  0  0  0  0
    3.7995    2.1876    0.0018 H   0  0  0  0  0  0  0  0  0  0  0  0
    5.1352   -1.8529    0.0003 H   0  0  0  0  0  0  0  0  0  0  0  0
    5.6100    0.5584    0.0009 H   0  0  0  0  0  0  0  0  0  0  0  0
 12 13  1  0  0  0  0
 12 14  2  0  0  0  0
  1 12  1  0  0  0  0
 13 15  2  0  0  0  0
  2 13  1  0  0  0  0
 11 14  1  0  0  0  0
  3 14  1  0  0  0  0
  1 16  2  0  0  0  0
 11 15  1  0  0  0  0
  4 15  1  0  0  0  0
  2  5  2  0  0  0  0
  3 17  2  0  0  0  0
 16 17  1  0  0  0  0
  6 16  1  0  0  0  0
  4  7  2  0  0  0  0
  5  7  1  0  0  0  0
  8 17  1  0  0  0  0
  6  9  2  0  0  0  0
  8 10  2  0  0  0  0
  9 10  1  0  0  0  0
  1 18  1  0  0  0  0
  2 19  1  0  0  0  0
 11 20  1  0  0  0  0
 11 21  1  0  0  0  0
  3 22  1  0  0  0  0
  4 23  1  0  0  0  0
  5 24  1  0  0  0  0
  6 25  1  0  0  0  0
  7 26  1  0  0  0  0
  8 27  1  0  0  0  0
  9 28  1  0  0  0  0
 10 29  1  0  0  0  0
M  END
$$$$
