C22H14
APtclcactv01171906293D 0   0.00000     0.00000
 
 36 40  0  0  0  0  0  0  0  0999 V2000
    4.7627   -1.3917    0.0004 C   0  0  0  0  0  0  0  0  0  0  0  0
    3.3973   -1.0668    0.0000 C   0  0  0  0  0  0  0  0  0  0  0  0
    2.4095   -2.0736   -0.0008 C   0  0  0  0  0  0  0  0  0  0  0  0
    1.0923   -1.7604   -0.0014 C   0  0  0  0  0  0  0  0  0  0  0  0
    0.6552   -0.4258   -0.0016 C   0  0  0  0  0  0  0  0  0  0  0  0
    1.5870    0.6273   -0.0012 C   0  0  0  0  0  0  0  0  0  0  0  0
    1.1584    1.9680   -0.0014 C   0  0  0  0  0  0  0  0  0  0  0  0
   -0.1475    2.3079   -0.0013 C   0  0  0  0  0  0  0  0  0  0  0  0
   -1.1602    1.3184   -0.0014 C   0  0  0  0  0  0  0  0  0  0  0  0
   -2.5054    1.6757   -0.0001 C   0  0  0  0  0  0  0  0  0  0  0  0
   -3.4834    0.6802    0.0005 C   0  0  0  0  0  0  0  0  0  0  0  0
   -4.8557    1.0065    0.0014 C   0  0  0  0  0  0  0  0  0  0  0  0
   -5.7807    0.0119    0.0016 C   0  0  0  0  0  0  0  0  0  0  0  0
   -5.4108   -1.3325    0.0008 C   0  0  0  0  0  0  0  0  0  0  0  0
   -4.1070   -1.7143    0.0004 C   0  0  0  0  0  0  0  0  0  0  0  0
   -3.0949   -0.7328   -0.0001 C   0  0  0  0  0  0  0  0  0  0  0  0
   -1.7434   -1.0875   -0.0000 C   0  0  0  0  0  0  0  0  0  0  0  0
   -0.7757   -0.0956   -0.0019 C   0  0  0  0  0  0  0  0  0  0  0  0
    3.0132    0.2948    0.0001 C   0  0  0  0  0  0  0  0  0  0  0  0
    3.9934    1.2914    0.0013 C   0  0  0  0  0  0  0  0  0  0  0  0
    5.3125    0.9412    0.0029 C   0  0  0  0  0  0  0  0  0  0  0  0
    5.6942   -0.3965    0.0007 C   0  0  0  0  0  0  0  0  0  0  0  0
    5.0741   -2.4258    0.0049 H   0  0  0  0  0  0  0  0  0  0  0  0
    2.7088   -3.1113   -0.0013 H   0  0  0  0  0  0  0  0  0  0  0  0
    0.3609   -2.5551   -0.0020 H   0  0  0  0  0  0  0  0  0  0  0  0
    1.9008    2.7523   -0.0014 H   0  0  0  0  0  0  0  0  0  0  0  0
   -0.4246    3.3518   -0.0008 H   0  0  0  0  0  0  0  0  0  0  0  0
   -2.7907    2.7174    0.0006 H   0  0  0  0  0  0  0  0  0  0  0  0
   -5.1687    2.0401    0.0023 H   0  0  0  0  0  0  0  0  0  0  0  0
   -6.8296    0.2690    0.0026 H   0  0  0  0  0  0  0  0  0  0  0  0
   -6.1806   -2.0899    0.0010 H   0  0  0  0  0  0  0  0  0  0  0  0
   -3.8475   -2.7626    0.0006 H   0  0  0  0  0  0  0  0  0  0  0  0
   -1.4548   -2.1282    0.0002 H   0  0  0  0  0  0  0  0  0  0  0  0
    3.7084    2.3331    0.0006 H   0  0  0  0  0  0  0  0  0  0  0  0
    6.0691    1.7118    0.0038 H   0  0  0  0  0  0  0  0  0  0  0  0
    6.7439   -0.6502    0.0021 H   0  0  0  0  0  0  0  0  0  0  0  0
  1  2  2  0  0  0  0
  2  3  1  0  0  0  0
  3  4  2  0  0  0  0
  4  5  1  0  0  0  0
  5  6  1  0  0  0  0
  6  7  2  0  0  0  0
  7  8  1  0  0  0  0
  8  9  2  0  0  0  0
  9 10  1  0  0  0  0
 10 11  2  0  0  0  0
 11 12  1  0  0  0  0
 12 13  2  0  0  0  0
 13 14  1  0  0  0  0
 14 15  2  0  0  0  0
 15 16  1  0  0  0  0
 11 16  1  0  0  0  0
 16 17  2  0  0  0  0
 17 18  1  0  0  0  0
  5 18  2  0  0  0  0
  9 18  1  0  0  0  0
  6 19  1  0  0  0  0
  2 19  1  0  0  0  0
 19 20  2  0  0  0  0
 20 21  1  0  0  0  0
 21 22  2  0  0  0  0
  1 22  1  0  0  0  0
  1 23  1  0  0  0  0
  3 24  1  0  0  0  0
  4 25  1  0  0  0  0
  7 26  1  0  0  0  0
  8 27  1  0  0  0  0
 10 28  1  0  0  0  0
 12 29  1  0  0  0  0
 13 30  1  0  0  0  0
 14 31  1  0  0  0  0
 15 32  1  0  0  0  0
 17 33  1  0  0  0  0
 20 34  1  0  0  0  0
 21 35  1  0  0  0  0
 22 36  1  0  0  0  0
M  END
$$$$
