C28H16
APtclcactv01171906283D 0   0.00000     0.00000
 
 44 50  0  0  0  0  0  0  0  0999 V2000
   -3.9282   -1.3097    0.5070 C   0  0  0  0  0  0  0  0  0  0  0  0
   -5.2760   -1.5237    0.5373 C   0  0  0  0  0  0  0  0  0  0  0  0
   -6.1672   -0.5061    0.2136 C   0  0  0  0  0  0  0  0  0  0  0  0
   -5.7121    0.7424   -0.0895 C   0  0  0  0  0  0  0  0  0  0  0  0
   -4.3347    1.0034   -0.0738 C   0  0  0  0  0  0  0  0  0  0  0  0
   -3.8495    2.3203   -0.2238 C   0  0  0  0  0  0  0  0  0  0  0  0
   -2.5262    2.5776   -0.2187 C   0  0  0  0  0  0  0  0  0  0  0  0
   -1.5723    1.5381   -0.1161 C   0  0  0  0  0  0  0  0  0  0  0  0
   -0.2038    1.8607   -0.0598 C   0  0  0  0  0  0  0  0  0  0  0  0
    0.7598    0.8785   -0.0427 C   0  0  0  0  0  0  0  0  0  0  0  0
    2.1946    1.2210    0.0198 C   0  0  0  0  0  0  0  0  0  0  0  0
    2.6097    2.5431    0.0531 C   0  0  0  0  0  0  0  0  0  0  0  0
    3.9620    2.8574    0.1086 C   0  0  0  0  0  0  0  0  0  0  0  0
    4.9108    1.8790    0.1372 C   0  0  0  0  0  0  0  0  0  0  0  0
    4.5309    0.5261    0.1126 C   0  0  0  0  0  0  0  0  0  0  0  0
    5.4929   -0.4982    0.1574 C   0  0  0  0  0  0  0  0  0  0  0  0
    5.1017   -1.8032    0.1248 C   0  0  0  0  0  0  0  0  0  0  0  0
    3.7587   -2.1495    0.0421 C   0  0  0  0  0  0  0  0  0  0  0  0
    2.7774   -1.1705   -0.0047 C   0  0  0  0  0  0  0  0  0  0  0  0
    1.3517   -1.5370   -0.1119 C   0  0  0  0  0  0  0  0  0  0  0  0
    0.9637   -2.8645   -0.2294 C   0  0  0  0  0  0  0  0  0  0  0  0
   -0.3783   -3.1895   -0.3564 C   0  0  0  0  0  0  0  0  0  0  0  0
   -1.3498   -2.2139   -0.3467 C   0  0  0  0  0  0  0  0  0  0  0  0
   -1.0043   -0.8711   -0.1671 C   0  0  0  0  0  0  0  0  0  0  0  0
   -1.9984    0.1928   -0.0651 C   0  0  0  0  0  0  0  0  0  0  0  0
   -3.4226   -0.0665    0.1193 C   0  0  0  0  0  0  0  0  0  0  0  0
    0.3666   -0.5285   -0.1000 C   0  0  0  0  0  0  0  0  0  0  0  0
    3.1582    0.1889    0.0420 C   0  0  0  0  0  0  0  0  0  0  0  0
   -3.2665   -2.0968    0.8375 H   0  0  0  0  0  0  0  0  0  0  0  0
   -5.6545   -2.4967    0.8138 H   0  0  0  0  0  0  0  0  0  0  0  0
   -7.2274   -0.7077    0.1976 H   0  0  0  0  0  0  0  0  0  0  0  0
   -6.4099    1.5274   -0.3426 H   0  0  0  0  0  0  0  0  0  0  0  0
   -4.5490    3.1340   -0.3431 H   0  0  0  0  0  0  0  0  0  0  0  0
   -2.1865    3.6002   -0.2909 H   0  0  0  0  0  0  0  0  0  0  0  0
    0.0893    2.8995   -0.0270 H   0  0  0  0  0  0  0  0  0  0  0  0
    1.8811    3.3397    0.0357 H   0  0  0  0  0  0  0  0  0  0  0  0
    4.2653    3.8937    0.1284 H   0  0  0  0  0  0  0  0  0  0  0  0
    5.9569    2.1440    0.1765 H   0  0  0  0  0  0  0  0  0  0  0  0
    6.5422   -0.2499    0.2159 H   0  0  0  0  0  0  0  0  0  0  0  0
    5.8488   -2.5822    0.1642 H   0  0  0  0  0  0  0  0  0  0  0  0
    3.4831   -3.1932    0.0159 H   0  0  0  0  0  0  0  0  0  0  0  0
    1.7038   -3.6500   -0.2217 H   0  0  0  0  0  0  0  0  0  0  0  0
   -0.6671   -4.2248   -0.4627 H   0  0  0  0  0  0  0  0  0  0  0  0
   -2.3745   -2.4997   -0.5304 H   0  0  0  0  0  0  0  0  0  0  0  0
  1  2  2  0  0  0  0
  2  3  1  0  0  0  0
  3  4  2  0  0  0  0
  4  5  1  0  0  0  0
  5  6  1  0  0  0  0
  6  7  2  0  0  0  0
  7  8  1  0  0  0  0
  8  9  2  0  0  0  0
  9 10  1  0  0  0  0
 10 11  1  0  0  0  0
 11 12  1  0  0  0  0
 12 13  2  0  0  0  0
 13 14  1  0  0  0  0
 14 15  2  0  0  0  0
 15 16  1  0  0  0  0
 16 17  2  0  0  0  0
 17 18  1  0  0  0  0
 18 19  2  0  0  0  0
 19 20  1  0  0  0  0
 20 21  2  0  0  0  0
 21 22  1  0  0  0  0
 22 23  2  0  0  0  0
 23 24  1  0  0  0  0
 24 25  2  0  0  0  0
  8 25  1  0  0  0  0
 25 26  1  0  0  0  0
  1 26  1  0  0  0  0
  5 26  2  0  0  0  0
 24 27  1  0  0  0  0
 20 27  1  0  0  0  0
 10 27  2  0  0  0  0
 19 28  1  0  0  0  0
 15 28  1  0  0  0  0
 11 28  2  0  0  0  0
  1 29  1  0  0  0  0
  2 30  1  0  0  0  0
  3 31  1  0  0  0  0
  4 32  1  0  0  0  0
  6 33  1  0  0  0  0
  7 34  1  0  0  0  0
  9 35  1  0  0  0  0
 12 36  1  0  0  0  0
 13 37  1  0  0  0  0
 14 38  1  0  0  0  0
 16 39  1  0  0  0  0
 17 40  1  0  0  0  0
 18 41  1  0  0  0  0
 21 42  1  0  0  0  0
 22 43  1  0  0  0  0
 23 44  1  0  0  0  0
M  END
$$$$
