C30H18
APtclcactv01171906283D 0   0.00000     0.00000
 
 48 54  0  0  0  0  0  0  0  0999 V2000
    3.0623   -2.0124   -0.4404 C   0  0  0  0  0  0  0  0  0  0  0  0
    3.5477   -3.2849   -0.3496 C   0  0  0  0  0  0  0  0  0  0  0  0
    4.8738   -3.5212   -0.0022 C   0  0  0  0  0  0  0  0  0  0  0  0
    5.7271   -2.4809    0.2099 C   0  0  0  0  0  0  0  0  0  0  0  0
    5.2623   -1.1634    0.0850 C   0  0  0  0  0  0  0  0  0  0  0  0
    6.1580   -0.0767    0.1379 C   0  0  0  0  0  0  0  0  0  0  0  0
    5.7087    1.1944    0.0894 C   0  0  0  0  0  0  0  0  0  0  0  0
    4.3288    1.4898    0.0249 C   0  0  0  0  0  0  0  0  0  0  0  0
    3.3862    0.4455   -0.0103 C   0  0  0  0  0  0  0  0  0  0  0  0
    1.9611    0.7799    0.0411 C   0  0  0  0  0  0  0  0  0  0  0  0
    0.9755   -0.1726    0.2080 C   0  0  0  0  0  0  0  0  0  0  0  0
   -0.3823    0.1870    0.1325 C   0  0  0  0  0  0  0  0  0  0  0  0
   -1.3681   -0.7983    0.1871 C   0  0  0  0  0  0  0  0  0  0  0  0
   -2.7175   -0.4400    0.1090 C   0  0  0  0  0  0  0  0  0  0  0  0
   -3.7055   -1.4341    0.1377 C   0  0  0  0  0  0  0  0  0  0  0  0
   -5.0448   -1.0761    0.0610 C   0  0  0  0  0  0  0  0  0  0  0  0
   -6.0601   -2.0597    0.0654 C   0  0  0  0  0  0  0  0  0  0  0  0
   -7.3598   -1.6787    0.0007 C   0  0  0  0  0  0  0  0  0  0  0  0
   -7.7281   -0.3328   -0.0670 C   0  0  0  0  0  0  0  0  0  0  0  0
   -6.8051    0.6614   -0.0784 C   0  0  0  0  0  0  0  0  0  0  0  0
   -5.4295    0.3384   -0.0260 C   0  0  0  0  0  0  0  0  0  0  0  0
   -4.4554    1.3288   -0.0621 C   0  0  0  0  0  0  0  0  0  0  0  0
   -3.0991    0.9757   -0.0052 C   0  0  0  0  0  0  0  0  0  0  0  0
   -2.1088    1.9619   -0.0641 C   0  0  0  0  0  0  0  0  0  0  0  0
   -0.7617    1.5998   -0.0053 C   0  0  0  0  0  0  0  0  0  0  0  0
    0.2449    2.5762   -0.0779 C   0  0  0  0  0  0  0  0  0  0  0  0
    1.5775    2.1984   -0.0487 C   0  0  0  0  0  0  0  0  0  0  0  0
    2.6312    3.2105   -0.0801 C   0  0  0  0  0  0  0  0  0  0  0  0
    3.9239    2.8444   -0.0313 C   0  0  0  0  0  0  0  0  0  0  0  0
    3.8777   -0.9234   -0.1193 C   0  0  0  0  0  0  0  0  0  0  0  0
    2.0612   -1.8642   -0.8165 H   0  0  0  0  0  0  0  0  0  0  0  0
    2.8932   -4.1201   -0.5529 H   0  0  0  0  0  0  0  0  0  0  0  0
    5.2303   -4.5344    0.0999 H   0  0  0  0  0  0  0  0  0  0  0  0
    6.7575   -2.6681    0.4762 H   0  0  0  0  0  0  0  0  0  0  0  0
    7.2176   -0.2654    0.2172 H   0  0  0  0  0  0  0  0  0  0  0  0
    6.4204    2.0067    0.1001 H   0  0  0  0  0  0  0  0  0  0  0  0
    1.2279   -1.1924    0.4544 H   0  0  0  0  0  0  0  0  0  0  0  0
   -1.0902   -1.8367    0.2900 H   0  0  0  0  0  0  0  0  0  0  0  0
   -3.4252   -2.4739    0.2188 H   0  0  0  0  0  0  0  0  0  0  0  0
   -5.8004   -3.1066    0.1194 H   0  0  0  0  0  0  0  0  0  0  0  0
   -8.1295   -2.4362    0.0002 H   0  0  0  0  0  0  0  0  0  0  0  0
   -8.7767   -0.0781   -0.1131 H   0  0  0  0  0  0  0  0  0  0  0  0
   -7.1210    1.6930   -0.1281 H   0  0  0  0  0  0  0  0  0  0  0  0
   -4.7427    2.3675   -0.1330 H   0  0  0  0  0  0  0  0  0  0  0  0
   -2.3869    3.0015   -0.1534 H   0  0  0  0  0  0  0  0  0  0  0  0
   -0.0189    3.6212   -0.1562 H   0  0  0  0  0  0  0  0  0  0  0  0
    2.3689    4.2561   -0.1429 H   0  0  0  0  0  0  0  0  0  0  0  0
    4.6836    3.6122   -0.0359 H   0  0  0  0  0  0  0  0  0  0  0  0
  1  2  2  0  0  0  0
  2  3  1  0  0  0  0
  3  4  2  0  0  0  0
  4  5  1  0  0  0  0
  5  6  1  0  0  0  0
  6  7  2  0  0  0  0
  7  8  1  0  0  0  0
  8  9  1  0  0  0  0
  9 10  2  0  0  0  0
 10 11  1  0  0  0  0
 11 12  2  0  0  0  0
 12 13  1  0  0  0  0
 13 14  2  0  0  0  0
 14 15  1  0  0  0  0
 15 16  2  0  0  0  0
 16 17  1  0  0  0  0
 17 18  2  0  0  0  0
 18 19  1  0  0  0  0
 19 20  2  0  0  0  0
 20 21  1  0  0  0  0
 16 21  1  0  0  0  0
 21 22  2  0  0  0  0
 22 23  1  0  0  0  0
 14 23  1  0  0  0  0
 23 24  2  0  0  0  0
 24 25  1  0  0  0  0
 12 25  1  0  0  0  0
 25 26  2  0  0  0  0
 26 27  1  0  0  0  0
 10 27  1  0  0  0  0
 27 28  2  0  0  0  0
 28 29  1  0  0  0  0
  8 29  2  0  0  0  0
  9 30  1  0  0  0  0
  1 30  1  0  0  0  0
  5 30  2  0  0  0  0
  1 31  1  0  0  0  0
  2 32  1  0  0  0  0
  3 33  1  0  0  0  0
  4 34  1  0  0  0  0
  6 35  1  0  0  0  0
  7 36  1  0  0  0  0
 11 37  1  0  0  0  0
 13 38  1  0  0  0  0
 15 39  1  0  0  0  0
 17 40  1  0  0  0  0
 18 41  1  0  0  0  0
 19 42  1  0  0  0  0
 20 43  1  0  0  0  0
 22 44  1  0  0  0  0
 24 45  1  0  0  0  0
 26 46  1  0  0  0  0
 28 47  1  0  0  0  0
 29 48  1  0  0  0  0
M  END
$$$$
