C30H18
APtclcactv01171906283D 0   0.00000     0.00000
 
 48 54  0  0  0  0  0  0  0  0999 V2000
    5.4383   -2.5713    0.0640 C   0  0  0  0  0  0  0  0  0  0  0  0
    4.3704   -1.6691    0.1676 C   0  0  0  0  0  0  0  0  0  0  0  0
    3.0578   -2.1157    0.4322 C   0  0  0  0  0  0  0  0  0  0  0  0
    2.0179   -1.2522    0.4655 C   0  0  0  0  0  0  0  0  0  0  0  0
    2.1794    0.1174    0.1864 C   0  0  0  0  0  0  0  0  0  0  0  0
    3.4854    0.6431    0.0645 C   0  0  0  0  0  0  0  0  0  0  0  0
    3.6854    2.0294   -0.0173 C   0  0  0  0  0  0  0  0  0  0  0  0
    2.6282    2.8788   -0.0238 C   0  0  0  0  0  0  0  0  0  0  0  0
    1.3105    2.3807    0.0106 C   0  0  0  0  0  0  0  0  0  0  0  0
    0.2213    3.2748    0.0717 C   0  0  0  0  0  0  0  0  0  0  0  0
   -1.0545    2.8265    0.0550 C   0  0  0  0  0  0  0  0  0  0  0  0
   -1.3426    1.4563   -0.0561 C   0  0  0  0  0  0  0  0  0  0  0  0
   -2.7228    0.9732   -0.0446 C   0  0  0  0  0  0  0  0  0  0  0  0
   -3.8071    1.8610    0.0757 C   0  0  0  0  0  0  0  0  0  0  0  0
   -5.0833    1.4159    0.1196 C   0  0  0  0  0  0  0  0  0  0  0  0
   -5.3798    0.0372    0.0606 C   0  0  0  0  0  0  0  0  0  0  0  0
   -6.7058   -0.4183    0.1176 C   0  0  0  0  0  0  0  0  0  0  0  0
   -6.9629   -1.7564    0.0897 C   0  0  0  0  0  0  0  0  0  0  0  0
   -5.9277   -2.6799   -0.0035 C   0  0  0  0  0  0  0  0  0  0  0  0
   -4.6277   -2.2687   -0.0815 C   0  0  0  0  0  0  0  0  0  0  0  0
   -4.3297   -0.9037   -0.0600 C   0  0  0  0  0  0  0  0  0  0  0  0
   -2.9552   -0.4118   -0.1689 C   0  0  0  0  0  0  0  0  0  0  0  0
   -1.8810   -1.2784   -0.4167 C   0  0  0  0  0  0  0  0  0  0  0  0
   -0.6024   -0.8241   -0.4474 C   0  0  0  0  0  0  0  0  0  0  0  0
   -0.2912    0.5175   -0.1808 C   0  0  0  0  0  0  0  0  0  0  0  0
    1.0795    0.9871   -0.0050 C   0  0  0  0  0  0  0  0  0  0  0  0
    4.6181   -0.2845    0.0201 C   0  0  0  0  0  0  0  0  0  0  0  0
    5.9286    0.1654   -0.1552 C   0  0  0  0  0  0  0  0  0  0  0  0
    6.9517   -0.7366   -0.2202 C   0  0  0  0  0  0  0  0  0  0  0  0
    6.7048   -2.1010   -0.1217 C   0  0  0  0  0  0  0  0  0  0  0  0
    5.2595   -3.6346    0.1264 H   0  0  0  0  0  0  0  0  0  0  0  0
    2.8798   -3.1659    0.6111 H   0  0  0  0  0  0  0  0  0  0  0  0
    1.0508   -1.6306    0.7622 H   0  0  0  0  0  0  0  0  0  0  0  0
    4.6868    2.4277   -0.0730 H   0  0  0  0  0  0  0  0  0  0  0  0
    2.7977    3.9445   -0.0567 H   0  0  0  0  0  0  0  0  0  0  0  0
    0.4099    4.3360    0.1340 H   0  0  0  0  0  0  0  0  0  0  0  0
   -1.8625    3.5383    0.1270 H   0  0  0  0  0  0  0  0  0  0  0  0
   -3.6219    2.9229    0.1338 H   0  0  0  0  0  0  0  0  0  0  0  0
   -5.8905    2.1289    0.1988 H   0  0  0  0  0  0  0  0  0  0  0  0
   -7.5192    0.2893    0.1814 H   0  0  0  0  0  0  0  0  0  0  0  0
   -7.9842   -2.1036    0.1411 H   0  0  0  0  0  0  0  0  0  0  0  0
   -6.1541   -3.7358   -0.0119 H   0  0  0  0  0  0  0  0  0  0  0  0
   -3.8361   -2.9993   -0.1558 H   0  0  0  0  0  0  0  0  0  0  0  0
   -2.0691   -2.3277   -0.5899 H   0  0  0  0  0  0  0  0  0  0  0  0
    0.1796   -1.5140   -0.7290 H   0  0  0  0  0  0  0  0  0  0  0  0
    6.1375    1.2217   -0.2362 H   0  0  0  0  0  0  0  0  0  0  0  0
    7.9647   -0.3848   -0.3472 H   0  0  0  0  0  0  0  0  0  0  0  0
    7.5267   -2.7973   -0.1944 H   0  0  0  0  0  0  0  0  0  0  0  0
  1  2  2  0  0  0  0
  2  3  1  0  0  0  0
  3  4  2  0  0  0  0
  4  5  1  0  0  0  0
  5  6  1  0  0  0  0
  6  7  2  0  0  0  0
  7  8  1  0  0  0  0
  8  9  2  0  0  0  0
  9 10  1  0  0  0  0
 10 11  2  0  0  0  0
 11 12  1  0  0  0  0
 12 13  1  0  0  0  0
 13 14  2  0  0  0  0
 14 15  1  0  0  0  0
 15 16  2  0  0  0  0
 16 17  1  0  0  0  0
 17 18  2  0  0  0  0
 18 19  1  0  0  0  0
 19 20  2  0  0  0  0
 20 21  1  0  0  0  0
 16 21  1  0  0  0  0
 21 22  2  0  0  0  0
 13 22  1  0  0  0  0
 22 23  1  0  0  0  0
 23 24  2  0  0  0  0
 24 25  1  0  0  0  0
 12 25  2  0  0  0  0
 25 26  1  0  0  0  0
  9 26  1  0  0  0  0
  5 26  2  0  0  0  0
  6 27  1  0  0  0  0
  2 27  1  0  0  0  0
 27 28  2  0  0  0  0
 28 29  1  0  0  0  0
 29 30  2  0  0  0  0
  1 30  1  0  0  0  0
  1 31  1  0  0  0  0
  3 32  1  0  0  0  0
  4 33  1  0  0  0  0
  7 34  1  0  0  0  0
  8 35  1  0  0  0  0
 10 36  1  0  0  0  0
 11 37  1  0  0  0  0
 14 38  1  0  0  0  0
 15 39  1  0  0  0  0
 17 40  1  0  0  0  0
 18 41  1  0  0  0  0
 19 42  1  0  0  0  0
 20 43  1  0  0  0  0
 23 44  1  0  0  0  0
 24 45  1  0  0  0  0
 28 46  1  0  0  0  0
 29 47  1  0  0  0  0
 30 48  1  0  0  0  0
M  END
$$$$
