C28H16
APtclcactv01171906283D 0   0.00000     0.00000
 
 44 50  0  0  0  0  0  0  0  0999 V2000
   -2.9867   -3.3400    0.0004 C   0  0  0  0  0  0  0  0  0  0  0  0
   -4.3415   -3.4756    0.0006 C   0  0  0  0  0  0  0  0  0  0  0  0
   -5.1723   -2.3591   -0.0002 C   0  0  0  0  0  0  0  0  0  0  0  0
   -4.6486   -1.0998   -0.0008 C   0  0  0  0  0  0  0  0  0  0  0  0
   -3.2603   -0.9232   -0.0006 C   0  0  0  0  0  0  0  0  0  0  0  0
   -2.6749    0.4181   -0.0006 C   0  0  0  0  0  0  0  0  0  0  0  0
   -1.2748    0.5432    0.0001 C   0  0  0  0  0  0  0  0  0  0  0  0
   -0.6899    1.8290    0.0003 C   0  0  0  0  0  0  0  0  0  0  0  0
    0.7101    1.9884    0.0005 C   0  0  0  0  0  0  0  0  0  0  0  0
    1.5943    0.8060    0.0005 C   0  0  0  0  0  0  0  0  0  0  0  0
    2.9678    0.9740    0.0006 C   0  0  0  0  0  0  0  0  0  0  0  0
    3.8085   -0.1476    0.0005 C   0  0  0  0  0  0  0  0  0  0  0  0
    5.2078   -0.0008    0.0001 C   0  0  0  0  0  0  0  0  0  0  0  0
    6.0021   -1.1056   -0.0005 C   0  0  0  0  0  0  0  0  0  0  0  0
    5.4506   -2.3859   -0.0011 C   0  0  0  0  0  0  0  0  0  0  0  0
    4.1022   -2.5687   -0.0012 C   0  0  0  0  0  0  0  0  0  0  0  0
    3.2467   -1.4516    0.0003 C   0  0  0  0  0  0  0  0  0  0  0  0
    1.8536   -1.6105   -0.0002 C   0  0  0  0  0  0  0  0  0  0  0  0
    1.0346   -0.4968    0.0008 C   0  0  0  0  0  0  0  0  0  0  0  0
   -0.4352   -0.6533    0.0012 C   0  0  0  0  0  0  0  0  0  0  0  0
   -1.0122   -1.9039    0.0017 C   0  0  0  0  0  0  0  0  0  0  0  0
   -2.4114   -2.0559   -0.0003 C   0  0  0  0  0  0  0  0  0  0  0  0
    1.2505    3.2689    0.0004 C   0  0  0  0  0  0  0  0  0  0  0  0
    0.4218    4.3802   -0.0001 C   0  0  0  0  0  0  0  0  0  0  0  0
   -0.9473    4.2451   -0.0000 C   0  0  0  0  0  0  0  0  0  0  0  0
   -1.5275    2.9687   -0.0003 C   0  0  0  0  0  0  0  0  0  0  0  0
   -2.9305    2.8064    0.0001 C   0  0  0  0  0  0  0  0  0  0  0  0
   -3.4842    1.5695   -0.0019 C   0  0  0  0  0  0  0  0  0  0  0  0
   -2.3550   -4.2160    0.0051 H   0  0  0  0  0  0  0  0  0  0  0  0
   -4.7776   -4.4637    0.0011 H   0  0  0  0  0  0  0  0  0  0  0  0
   -6.2441   -2.4914   -0.0007 H   0  0  0  0  0  0  0  0  0  0  0  0
   -5.3036   -0.2411   -0.0017 H   0  0  0  0  0  0  0  0  0  0  0  0
    3.3914    1.9675    0.0004 H   0  0  0  0  0  0  0  0  0  0  0  0
    5.6497    0.9847   -0.0002 H   0  0  0  0  0  0  0  0  0  0  0  0
    7.0757   -0.9889   -0.0008 H   0  0  0  0  0  0  0  0  0  0  0  0
    6.1036   -3.2461   -0.0019 H   0  0  0  0  0  0  0  0  0  0  0  0
    3.6903   -3.5671   -0.0024 H   0  0  0  0  0  0  0  0  0  0  0  0
    1.4215   -2.6003   -0.0013 H   0  0  0  0  0  0  0  0  0  0  0  0
   -0.3818   -2.7808    0.0011 H   0  0  0  0  0  0  0  0  0  0  0  0
    2.3227    3.3988    0.0010 H   0  0  0  0  0  0  0  0  0  0  0  0
    0.8581    5.3681   -0.0001 H   0  0  0  0  0  0  0  0  0  0  0  0
   -1.5759    5.1233    0.0003 H   0  0  0  0  0  0  0  0  0  0  0  0
   -3.5690    3.6774    0.0006 H   0  0  0  0  0  0  0  0  0  0  0  0
   -4.5592    1.4661   -0.0015 H   0  0  0  0  0  0  0  0  0  0  0  0
  1  2  2  0  0  0  0
  2  3  1  0  0  0  0
  3  4  2  0  0  0  0
  4  5  1  0  0  0  0
  5  6  1  0  0  0  0
  6  7  2  0  0  0  0
  7  8  1  0  0  0  0
  8  9  2  0  0  0  0
  9 10  1  0  0  0  0
 10 11  2  0  0  0  0
 11 12  1  0  0  0  0
 12 13  2  0  0  0  0
 13 14  1  0  0  0  0
 14 15  2  0  0  0  0
 15 16  1  0  0  0  0
 16 17  2  0  0  0  0
 12 17  1  0  0  0  0
 17 18  1  0  0  0  0
 18 19  2  0  0  0  0
 10 19  1  0  0  0  0
 19 20  1  0  0  0  0
  7 20  1  0  0  0  0
 20 21  2  0  0  0  0
 21 22  1  0  0  0  0
  1 22  1  0  0  0  0
  5 22  2  0  0  0  0
  9 23  1  0  0  0  0
 23 24  2  0  0  0  0
 24 25  1  0  0  0  0
 25 26  2  0  0  0  0
  8 26  1  0  0  0  0
 26 27  1  0  0  0  0
 27 28  2  0  0  0  0
  6 28  1  0  0  0  0
  1 29  1  0  0  0  0
  2 30  1  0  0  0  0
  3 31  1  0  0  0  0
  4 32  1  0  0  0  0
 11 33  1  0  0  0  0
 13 34  1  0  0  0  0
 14 35  1  0  0  0  0
 15 36  1  0  0  0  0
 16 37  1  0  0  0  0
 18 38  1  0  0  0  0
 21 39  1  0  0  0  0
 23 40  1  0  0  0  0
 24 41  1  0  0  0  0
 25 42  1  0  0  0  0
 27 43  1  0  0  0  0
 28 44  1  0  0  0  0
M  END
$$$$
