C30H18
APtclcactv01171906293D 0   0.00000     0.00000
 
 48 54  0  0  0  0  0  0  0  0999 V2000
   -5.0822   -0.2339    0.0006 C   0  0  0  0  0  0  0  0  0  0  0  0
   -5.9645   -1.2691    0.0004 C   0  0  0  0  0  0  0  0  0  0  0  0
   -5.5203   -2.5907    0.0006 C   0  0  0  0  0  0  0  0  0  0  0  0
   -4.1919   -2.8828    0.0006 C   0  0  0  0  0  0  0  0  0  0  0  0
   -3.2465   -1.8395    0.0003 C   0  0  0  0  0  0  0  0  0  0  0  0
   -1.8730   -2.1214   -0.0002 C   0  0  0  0  0  0  0  0  0  0  0  0
   -0.9570   -1.0848   -0.0009 C   0  0  0  0  0  0  0  0  0  0  0  0
    0.4606   -1.3713   -0.0010 C   0  0  0  0  0  0  0  0  0  0  0  0
    1.4179   -0.2863   -0.0012 C   0  0  0  0  0  0  0  0  0  0  0  0
    0.9572    1.0845   -0.0013 C   0  0  0  0  0  0  0  0  0  0  0  0
    1.8717    2.1225   -0.0010 C   0  0  0  0  0  0  0  0  0  0  0  0
    1.4210    3.4502   -0.0005 C   0  0  0  0  0  0  0  0  0  0  0  0
    2.3385    4.5181    0.0003 C   0  0  0  0  0  0  0  0  0  0  0  0
    1.8832    5.7998    0.0012 C   0  0  0  0  0  0  0  0  0  0  0  0
    0.5166    6.0760    0.0014 C   0  0  0  0  0  0  0  0  0  0  0  0
   -0.4007    5.0716    0.0010 C   0  0  0  0  0  0  0  0  0  0  0  0
    0.0301    3.7312   -0.0004 C   0  0  0  0  0  0  0  0  0  0  0  0
   -0.9007    2.6827   -0.0003 C   0  0  0  0  0  0  0  0  0  0  0  0
   -0.4610    1.3711   -0.0012 C   0  0  0  0  0  0  0  0  0  0  0  0
   -1.4179    0.2867   -0.0010 C   0  0  0  0  0  0  0  0  0  0  0  0
   -2.7741    0.5596   -0.0005 C   0  0  0  0  0  0  0  0  0  0  0  0
   -3.6986   -0.4944    0.0006 C   0  0  0  0  0  0  0  0  0  0  0  0
    2.7737   -0.5613   -0.0010 C   0  0  0  0  0  0  0  0  0  0  0  0
    3.2164   -1.8917   -0.0004 C   0  0  0  0  0  0  0  0  0  0  0  0
    4.5926   -2.1888    0.0003 C   0  0  0  0  0  0  0  0  0  0  0  0
    5.0038   -3.4853    0.0014 C   0  0  0  0  0  0  0  0  0  0  0  0
    4.0814   -4.5307    0.0014 C   0  0  0  0  0  0  0  0  0  0  0  0
    2.7437   -4.2842    0.0003 C   0  0  0  0  0  0  0  0  0  0  0  0
    2.2775   -2.9557    0.0000 C   0  0  0  0  0  0  0  0  0  0  0  0
    0.9024   -2.6822   -0.0003 C   0  0  0  0  0  0  0  0  0  0  0  0
   -5.4417    0.7845   -0.0037 H   0  0  0  0  0  0  0  0  0  0  0  0
   -7.0249   -1.0643    0.0004 H   0  0  0  0  0  0  0  0  0  0  0  0
   -6.2418   -3.3943    0.0012 H   0  0  0  0  0  0  0  0  0  0  0  0
   -3.8634   -3.9117    0.0011 H   0  0  0  0  0  0  0  0  0  0  0  0
   -1.5309   -3.1458    0.0003 H   0  0  0  0  0  0  0  0  0  0  0  0
    2.9307    1.9106   -0.0008 H   0  0  0  0  0  0  0  0  0  0  0  0
    3.4002    4.3203    0.0005 H   0  0  0  0  0  0  0  0  0  0  0  0
    2.5908    6.6157    0.0022 H   0  0  0  0  0  0  0  0  0  0  0  0
    0.1813    7.1026    0.0021 H   0  0  0  0  0  0  0  0  0  0  0  0
   -1.4559    5.3016    0.0019 H   0  0  0  0  0  0  0  0  0  0  0  0
   -1.9589    2.8986    0.0009 H   0  0  0  0  0  0  0  0  0  0  0  0
   -3.1200    1.5827    0.0001 H   0  0  0  0  0  0  0  0  0  0  0  0
    3.4897    0.2472   -0.0016 H   0  0  0  0  0  0  0  0  0  0  0  0
    5.3193   -1.3899   -0.0004 H   0  0  0  0  0  0  0  0  0  0  0  0
    6.0605   -3.7082    0.0020 H   0  0  0  0  0  0  0  0  0  0  0  0
    4.4342   -5.5515    0.0020 H   0  0  0  0  0  0  0  0  0  0  0  0
    2.0416   -5.1048   -0.0001 H   0  0  0  0  0  0  0  0  0  0  0  0
    0.1894   -3.4934   -0.0005 H   0  0  0  0  0  0  0  0  0  0  0  0
  1  2  2  0  0  0  0
  2  3  1  0  0  0  0
  3  4  2  0  0  0  0
  4  5  1  0  0  0  0
  5  6  2  0  0  0  0
  6  7  1  0  0  0  0
  7  8  1  0  0  0  0
  8  9  2  0  0  0  0
  9 10  1  0  0  0  0
 10 11  2  0  0  0  0
 11 12  1  0  0  0  0
 12 13  2  0  0  0  0
 13 14  1  0  0  0  0
 14 15  2  0  0  0  0
 15 16  1  0  0  0  0
 16 17  2  0  0  0  0
 12 17  1  0  0  0  0
 17 18  1  0  0  0  0
 18 19  2  0  0  0  0
 10 19  1  0  0  0  0
 19 20  1  0  0  0  0
  7 20  2  0  0  0  0
 20 21  1  0  0  0  0
 21 22  2  0  0  0  0
  1 22  1  0  0  0  0
  5 22  1  0  0  0  0
  9 23  1  0  0  0  0
 23 24  2  0  0  0  0
 24 25  1  0  0  0  0
 25 26  2  0  0  0  0
 26 27  1  0  0  0  0
 27 28  2  0  0  0  0
 28 29  1  0  0  0  0
 24 29  1  0  0  0  0
 29 30  2  0  0  0  0
  8 30  1  0  0  0  0
  1 31  1  0  0  0  0
  2 32  1  0  0  0  0
  3 33  1  0  0  0  0
  4 34  1  0  0  0  0
  6 35  1  0  0  0  0
 11 36  1  0  0  0  0
 13 37  1  0  0  0  0
 14 38  1  0  0  0  0
 15 39  1  0  0  0  0
 16 40  1  0  0  0  0
 18 41  1  0  0  0  0
 21 42  1  0  0  0  0
 23 43  1  0  0  0  0
 25 44  1  0  0  0  0
 26 45  1  0  0  0  0
 27 46  1  0  0  0  0
 28 47  1  0  0  0  0
 30 48  1  0  0  0  0
M  END
$$$$
