C30H18
APtclcactv01171906283D 0   0.00000     0.00000
 
 48 54  0  0  0  0  0  0  0  0999 V2000
   -5.2836    1.2617   -0.3519 C   0  0  0  0  0  0  0  0  0  0  0  0
   -5.3286   -0.0876   -0.3177 C   0  0  0  0  0  0  0  0  0  0  0  0
   -4.1635   -0.8553   -0.1100 C   0  0  0  0  0  0  0  0  0  0  0  0
   -2.9110   -0.2192    0.0094 C   0  0  0  0  0  0  0  0  0  0  0  0
   -1.7075   -1.0476   -0.0044 C   0  0  0  0  0  0  0  0  0  0  0  0
   -0.4285   -0.5070   -0.1076 C   0  0  0  0  0  0  0  0  0  0  0  0
    0.6903   -1.3241   -0.0336 C   0  0  0  0  0  0  0  0  0  0  0  0
    2.0453   -0.7466   -0.0503 C   0  0  0  0  0  0  0  0  0  0  0  0
    2.2363    0.6222   -0.1041 C   0  0  0  0  0  0  0  0  0  0  0  0
    3.5354    1.1432   -0.0984 C   0  0  0  0  0  0  0  0  0  0  0  0
    3.7640    2.5319   -0.1425 C   0  0  0  0  0  0  0  0  0  0  0  0
    5.0398    3.0015   -0.1258 C   0  0  0  0  0  0  0  0  0  0  0  0
    6.1349    2.1426   -0.0715 C   0  0  0  0  0  0  0  0  0  0  0  0
    5.9819    0.7924   -0.0334 C   0  0  0  0  0  0  0  0  0  0  0  0
    4.6864    0.2393   -0.0435 C   0  0  0  0  0  0  0  0  0  0  0  0
    4.4871   -1.1436   -0.0010 C   0  0  0  0  0  0  0  0  0  0  0  0
    3.1944   -1.6526   -0.0008 C   0  0  0  0  0  0  0  0  0  0  0  0
    2.9670   -3.0968    0.0563 C   0  0  0  0  0  0  0  0  0  0  0  0
    1.7197   -3.5978    0.0848 C   0  0  0  0  0  0  0  0  0  0  0  0
    0.5428   -2.7314    0.0529 C   0  0  0  0  0  0  0  0  0  0  0  0
   -0.7327   -3.2863    0.1044 C   0  0  0  0  0  0  0  0  0  0  0  0
   -1.8578   -2.4608    0.0723 C   0  0  0  0  0  0  0  0  0  0  0  0
   -3.1520   -3.0299    0.0980 C   0  0  0  0  0  0  0  0  0  0  0  0
   -4.2537   -2.2610    0.0006 C   0  0  0  0  0  0  0  0  0  0  0  0
   -2.8850    1.2328    0.1436 C   0  0  0  0  0  0  0  0  0  0  0  0
   -1.7618    1.9455    0.5689 C   0  0  0  0  0  0  0  0  0  0  0  0
   -1.7682    3.3109    0.5614 C   0  0  0  0  0  0  0  0  0  0  0  0
   -2.8980    4.0165    0.1599 C   0  0  0  0  0  0  0  0  0  0  0  0
   -4.0367    3.3561   -0.1916 C   0  0  0  0  0  0  0  0  0  0  0  0
   -4.0733    1.9552   -0.1424 C   0  0  0  0  0  0  0  0  0  0  0  0
   -6.1894    1.8191   -0.5376 H   0  0  0  0  0  0  0  0  0  0  0  0
   -6.2754   -0.5893   -0.4498 H   0  0  0  0  0  0  0  0  0  0  0  0
   -0.2946    0.5447   -0.3072 H   0  0  0  0  0  0  0  0  0  0  0  0
    1.3905    1.2921   -0.1495 H   0  0  0  0  0  0  0  0  0  0  0  0
    2.9317    3.2185   -0.1897 H   0  0  0  0  0  0  0  0  0  0  0  0
    5.2080    4.0680   -0.1540 H   0  0  0  0  0  0  0  0  0  0  0  0
    7.1312    2.5601   -0.0572 H   0  0  0  0  0  0  0  0  0  0  0  0
    6.8477    0.1480    0.0055 H   0  0  0  0  0  0  0  0  0  0  0  0
    5.3338   -1.8135    0.0302 H   0  0  0  0  0  0  0  0  0  0  0  0
    3.8118   -3.7690    0.0737 H   0  0  0  0  0  0  0  0  0  0  0  0
    1.5840   -4.6685    0.1324 H   0  0  0  0  0  0  0  0  0  0  0  0
   -0.8533   -4.3583    0.1686 H   0  0  0  0  0  0  0  0  0  0  0  0
   -3.2574   -4.1000    0.1984 H   0  0  0  0  0  0  0  0  0  0  0  0
   -5.2278   -2.7276    0.0052 H   0  0  0  0  0  0  0  0  0  0  0  0
   -0.8947    1.4332    0.9589 H   0  0  0  0  0  0  0  0  0  0  0  0
   -0.8845    3.8494    0.8690 H   0  0  0  0  0  0  0  0  0  0  0  0
   -2.8722    5.0947    0.1258 H   0  0  0  0  0  0  0  0  0  0  0  0
   -4.9080    3.9097   -0.5094 H   0  0  0  0  0  0  0  0  0  0  0  0
  1  2  2  0  0  0  0
  2  3  1  0  0  0  0
  3  4  1  0  0  0  0
  4  5  2  0  0  0  0
  5  6  1  0  0  0  0
  6  7  2  0  0  0  0
  7  8  1  0  0  0  0
  8  9  2  0  0  0  0
  9 10  1  0  0  0  0
 10 11  2  0  0  0  0
 11 12  1  0  0  0  0
 12 13  2  0  0  0  0
 13 14  1  0  0  0  0
 14 15  2  0  0  0  0
 10 15  1  0  0  0  0
 15 16  1  0  0  0  0
 16 17  2  0  0  0  0
  8 17  1  0  0  0  0
 17 18  1  0  0  0  0
 18 19  2  0  0  0  0
 19 20  1  0  0  0  0
  7 20  1  0  0  0  0
 20 21  2  0  0  0  0
 21 22  1  0  0  0  0
  5 22  1  0  0  0  0
 22 23  2  0  0  0  0
 23 24  1  0  0  0  0
  3 24  2  0  0  0  0
  4 25  1  0  0  0  0
 25 26  1  0  0  0  0
 26 27  2  0  0  0  0
 27 28  1  0  0  0  0
 28 29  2  0  0  0  0
 29 30  1  0  0  0  0
  1 30  1  0  0  0  0
 25 30  2  0  0  0  0
  1 31  1  0  0  0  0
  2 32  1  0  0  0  0
  6 33  1  0  0  0  0
  9 34  1  0  0  0  0
 11 35  1  0  0  0  0
 12 36  1  0  0  0  0
 13 37  1  0  0  0  0
 14 38  1  0  0  0  0
 16 39  1  0  0  0  0
 18 40  1  0  0  0  0
 19 41  1  0  0  0  0
 21 42  1  0  0  0  0
 23 43  1  0  0  0  0
 24 44  1  0  0  0  0
 26 45  1  0  0  0  0
 27 46  1  0  0  0  0
 28 47  1  0  0  0  0
 29 48  1  0  0  0  0
M  END
$$$$
