C30H18
APtclcactv01171906293D 0   0.00000     0.00000
 
 48 54  0  0  0  0  0  0  0  0999 V2000
   -3.6613   -0.2502   -0.6794 C   0  0  0  0  0  0  0  0  0  0  0  0
   -5.0235   -0.1981   -0.6343 C   0  0  0  0  0  0  0  0  0  0  0  0
   -5.6817    0.9424   -0.1854 C   0  0  0  0  0  0  0  0  0  0  0  0
   -4.9759    2.0527    0.1688 C   0  0  0  0  0  0  0  0  0  0  0  0
   -3.5755    2.0361    0.1029 C   0  0  0  0  0  0  0  0  0  0  0  0
   -2.8198    3.2077    0.2984 C   0  0  0  0  0  0  0  0  0  0  0  0
   -1.4671    3.1712    0.2804 C   0  0  0  0  0  0  0  0  0  0  0  0
   -0.7602    1.9613    0.1436 C   0  0  0  0  0  0  0  0  0  0  0  0
    0.7103    1.9772    0.1014 C   0  0  0  0  0  0  0  0  0  0  0  0
    1.3982    3.1967    0.2572 C   0  0  0  0  0  0  0  0  0  0  0  0
    2.7496    3.2560    0.2845 C   0  0  0  0  0  0  0  0  0  0  0  0
    3.5253    2.0994    0.0818 C   0  0  0  0  0  0  0  0  0  0  0  0
    4.9233    2.1308    0.1940 C   0  0  0  0  0  0  0  0  0  0  0  0
    5.6537    1.0345   -0.1538 C   0  0  0  0  0  0  0  0  0  0  0  0
    5.0244   -0.1189   -0.6127 C   0  0  0  0  0  0  0  0  0  0  0  0
    3.6638   -0.1909   -0.6885 C   0  0  0  0  0  0  0  0  0  0  0  0
    2.8808    0.8761   -0.2409 C   0  0  0  0  0  0  0  0  0  0  0  0
    1.4353    0.7883   -0.0631 C   0  0  0  0  0  0  0  0  0  0  0  0
    0.7366   -0.5001    0.0201 C   0  0  0  0  0  0  0  0  0  0  0  0
   -0.7313   -0.5177    0.0448 C   0  0  0  0  0  0  0  0  0  0  0  0
   -1.4622    0.7530    0.0154 C   0  0  0  0  0  0  0  0  0  0  0  0
   -2.9054    0.8183   -0.1902 C   0  0  0  0  0  0  0  0  0  0  0  0
   -1.4039   -1.7274    0.1347 C   0  0  0  0  0  0  0  0  0  0  0  0
   -0.6956   -2.9326    0.1582 C   0  0  0  0  0  0  0  0  0  0  0  0
   -1.3574   -4.1749    0.2015 C   0  0  0  0  0  0  0  0  0  0  0  0
   -0.6271   -5.3211    0.2426 C   0  0  0  0  0  0  0  0  0  0  0  0
    0.7663   -5.3005    0.2442 C   0  0  0  0  0  0  0  0  0  0  0  0
    1.4644   -4.1351    0.2012 C   0  0  0  0  0  0  0  0  0  0  0  0
    0.7672   -2.9125    0.1562 C   0  0  0  0  0  0  0  0  0  0  0  0
    1.4416   -1.6884    0.1308 C   0  0  0  0  0  0  0  0  0  0  0  0
   -3.1810   -1.1000   -1.1433 H   0  0  0  0  0  0  0  0  0  0  0  0
   -5.5992   -1.0566   -0.9484 H   0  0  0  0  0  0  0  0  0  0  0  0
   -6.7588    0.9474   -0.1139 H   0  0  0  0  0  0  0  0  0  0  0  0
   -5.4944    2.9414    0.4977 H   0  0  0  0  0  0  0  0  0  0  0  0
   -3.3235    4.1467    0.4686 H   0  0  0  0  0  0  0  0  0  0  0  0
   -0.9258    4.1008    0.3660 H   0  0  0  0  0  0  0  0  0  0  0  0
    0.8412    4.1163    0.3484 H   0  0  0  0  0  0  0  0  0  0  0  0
    3.2374    4.2018    0.4660 H   0  0  0  0  0  0  0  0  0  0  0  0
    5.4193    3.0178    0.5601 H   0  0  0  0  0  0  0  0  0  0  0  0
    6.7292    1.0622   -0.0769 H   0  0  0  0  0  0  0  0  0  0  0  0
    5.6200   -0.9707   -0.9060 H   0  0  0  0  0  0  0  0  0  0  0  0
    3.2088   -1.0573   -1.1449 H   0  0  0  0  0  0  0  0  0  0  0  0
   -2.4769   -1.7576    0.2423 H   0  0  0  0  0  0  0  0  0  0  0  0
   -2.4363   -4.2179    0.2025 H   0  0  0  0  0  0  0  0  0  0  0  0
   -1.1402   -6.2710    0.2739 H   0  0  0  0  0  0  0  0  0  0  0  0
    1.3063   -6.2353    0.2793 H   0  0  0  0  0  0  0  0  0  0  0  0
    2.5443   -4.1464    0.1971 H   0  0  0  0  0  0  0  0  0  0  0  0
    2.5132   -1.6897    0.2578 H   0  0  0  0  0  0  0  0  0  0  0  0
  1  2  2  0  0  0  0
  2  3  1  0  0  0  0
  3  4  2  0  0  0  0
  4  5  1  0  0  0  0
  5  6  1  0  0  0  0
  6  7  2  0  0  0  0
  7  8  1  0  0  0  0
  8  9  2  0  0  0  0
  9 10  1  0  0  0  0
 10 11  2  0  0  0  0
 11 12  1  0  0  0  0
 12 13  1  0  0  0  0
 13 14  2  0  0  0  0
 14 15  1  0  0  0  0
 15 16  2  0  0  0  0
 16 17  1  0  0  0  0
 12 17  2  0  0  0  0
 17 18  1  0  0  0  0
  9 18  1  0  0  0  0
 18 19  2  0  0  0  0
 19 20  1  0  0  0  0
 20 21  2  0  0  0  0
  8 21  1  0  0  0  0
 21 22  1  0  0  0  0
  1 22  1  0  0  0  0
  5 22  2  0  0  0  0
 20 23  1  0  0  0  0
 23 24  2  0  0  0  0
 24 25  1  0  0  0  0
 25 26  2  0  0  0  0
 26 27  1  0  0  0  0
 27 28  2  0  0  0  0
 28 29  1  0  0  0  0
 24 29  1  0  0  0  0
 29 30  2  0  0  0  0
 19 30  1  0  0  0  0
  1 31  1  0  0  0  0
  2 32  1  0  0  0  0
  3 33  1  0  0  0  0
  4 34  1  0  0  0  0
  6 35  1  0  0  0  0
  7 36  1  0  0  0  0
 10 37  1  0  0  0  0
 11 38  1  0  0  0  0
 13 39  1  0  0  0  0
 14 40  1  0  0  0  0
 15 41  1  0  0  0  0
 16 42  1  0  0  0  0
 23 43  1  0  0  0  0
 25 44  1  0  0  0  0
 26 45  1  0  0  0  0
 27 46  1  0  0  0  0
 28 47  1  0  0  0  0
 30 48  1  0  0  0  0
M  END
$$$$
