C24H14
APtclcactv01171906283D 0   0.00000     0.00000
 
 38 43  0  0  0  0  0  0  0  0999 V2000
   -2.3681   -2.4487    0.0015 C   0  0  0  0  0  0  0  0  0  0  0  0
   -3.7317   -2.7376    0.0040 C   0  0  0  0  0  0  0  0  0  0  0  0
   -4.6980   -1.7689    0.0037 C   0  0  0  0  0  0  0  0  0  0  0  0
   -4.3076   -0.4192    0.0013 C   0  0  0  0  0  0  0  0  0  0  0  0
   -5.1854    0.6784   -0.0002 C   0  0  0  0  0  0  0  0  0  0  0  0
   -4.6641    1.9429   -0.0011 C   0  0  0  0  0  0  0  0  0  0  0  0
   -3.2933    2.1984   -0.0016 C   0  0  0  0  0  0  0  0  0  0  0  0
   -2.3965    1.1440   -0.0008 C   0  0  0  0  0  0  0  0  0  0  0  0
   -0.9286    0.9793   -0.0010 C   0  0  0  0  0  0  0  0  0  0  0  0
    0.1105    1.8919    0.0001 C   0  0  0  0  0  0  0  0  0  0  0  0
    1.4378    1.4470   -0.0002 C   0  0  0  0  0  0  0  0  0  0  0  0
    1.7097    0.0578   -0.0028 C   0  0  0  0  0  0  0  0  0  0  0  0
    0.6612   -0.8599   -0.0050 C   0  0  0  0  0  0  0  0  0  0  0  0
   -0.6508   -0.4166   -0.0028 C   0  0  0  0  0  0  0  0  0  0  0  0
   -1.9430   -1.1308   -0.0006 C   0  0  0  0  0  0  0  0  0  0  0  0
   -2.9366   -0.1464   -0.0001 C   0  0  0  0  0  0  0  0  0  0  0  0
    3.1083   -0.3845   -0.0018 C   0  0  0  0  0  0  0  0  0  0  0  0
    3.4444   -1.7391   -0.0043 C   0  0  0  0  0  0  0  0  0  0  0  0
    4.7596   -2.1101   -0.0031 C   0  0  0  0  0  0  0  0  0  0  0  0
    5.7675   -1.1535    0.0025 C   0  0  0  0  0  0  0  0  0  0  0  0
    5.4698    0.1782    0.0054 C   0  0  0  0  0  0  0  0  0  0  0  0
    4.1305    0.5915    0.0022 C   0  0  0  0  0  0  0  0  0  0  0  0
    3.7928    1.9651    0.0023 C   0  0  0  0  0  0  0  0  0  0  0  0
    2.5076    2.3732    0.0016 C   0  0  0  0  0  0  0  0  0  0  0  0
   -1.6449   -3.2507    0.0056 H   0  0  0  0  0  0  0  0  0  0  0  0
   -4.0394   -3.7728    0.0058 H   0  0  0  0  0  0  0  0  0  0  0  0
   -5.7441   -2.0375    0.0049 H   0  0  0  0  0  0  0  0  0  0  0  0
   -6.2546    0.5258   -0.0010 H   0  0  0  0  0  0  0  0  0  0  0  0
   -5.3449    2.7813   -0.0018 H   0  0  0  0  0  0  0  0  0  0  0  0
   -2.9323    3.2162   -0.0029 H   0  0  0  0  0  0  0  0  0  0  0  0
   -0.1026    2.9507    0.0009 H   0  0  0  0  0  0  0  0  0  0  0  0
    0.8722   -1.9191   -0.0089 H   0  0  0  0  0  0  0  0  0  0  0  0
    2.6687   -2.4906   -0.0067 H   0  0  0  0  0  0  0  0  0  0  0  0
    5.0186   -3.1586   -0.0062 H   0  0  0  0  0  0  0  0  0  0  0  0
    6.8006   -1.4684    0.0048 H   0  0  0  0  0  0  0  0  0  0  0  0
    6.2632    0.9110    0.0102 H   0  0  0  0  0  0  0  0  0  0  0  0
    4.5814    2.7030    0.0039 H   0  0  0  0  0  0  0  0  0  0  0  0
    2.2899    3.4310    0.0018 H   0  0  0  0  0  0  0  0  0  0  0  0
  1  2  2  0  0  0  0
  2  3  1  0  0  0  0
  3  4  2  0  0  0  0
  4  5  1  0  0  0  0
  5  6  2  0  0  0  0
  6  7  1  0  0  0  0
  7  8  2  0  0  0  0
  8  9  1  0  0  0  0
  9 10  1  0  0  0  0
 10 11  2  0  0  0  0
 11 12  1  0  0  0  0
 12 13  2  0  0  0  0
 13 14  1  0  0  0  0
  9 14  2  0  0  0  0
 14 15  1  0  0  0  0
  1 15  1  0  0  0  0
 15 16  2  0  0  0  0
  8 16  1  0  0  0  0
  4 16  1  0  0  0  0
 12 17  1  0  0  0  0
 17 18  2  0  0  0  0
 18 19  1  0  0  0  0
 19 20  2  0  0  0  0
 20 21  1  0  0  0  0
 21 22  2  0  0  0  0
 17 22  1  0  0  0  0
 22 23  1  0  0  0  0
 23 24  2  0  0  0  0
 11 24  1  0  0  0  0
  1 25  1  0  0  0  0
  2 26  1  0  0  0  0
  3 27  1  0  0  0  0
  5 28  1  0  0  0  0
  6 29  1  0  0  0  0
  7 30  1  0  0  0  0
 10 31  1  0  0  0  0
 13 32  1  0  0  0  0
 18 33  1  0  0  0  0
 19 34  1  0  0  0  0
 20 35  1  0  0  0  0
 21 36  1  0  0  0  0
 23 37  1  0  0  0  0
 24 38  1  0  0  0  0
M  END
$$$$
