C30H18
APtclcactv01171906283D 0   0.00000     0.00000
 
 48 54  0  0  0  0  0  0  0  0999 V2000
   -3.8306   -2.9539   -0.0007 C   0  0  0  0  0  0  0  0  0  0  0  0
   -5.0472   -3.5603    0.0003 C   0  0  0  0  0  0  0  0  0  0  0  0
   -6.2311   -2.8255    0.0016 C   0  0  0  0  0  0  0  0  0  0  0  0
   -6.2275   -1.4664    0.0014 C   0  0  0  0  0  0  0  0  0  0  0  0
   -4.9997   -0.7746    0.0004 C   0  0  0  0  0  0  0  0  0  0  0  0
   -4.9561    0.6222    0.0006 C   0  0  0  0  0  0  0  0  0  0  0  0
   -3.7276    1.2715    0.0000 C   0  0  0  0  0  0  0  0  0  0  0  0
   -2.4859    0.4965   -0.0008 C   0  0  0  0  0  0  0  0  0  0  0  0
   -1.2032    1.2183   -0.0009 C   0  0  0  0  0  0  0  0  0  0  0  0
   -0.0001    0.5222   -0.0012 C   0  0  0  0  0  0  0  0  0  0  0  0
    1.2030    1.2183   -0.0009 C   0  0  0  0  0  0  0  0  0  0  0  0
    2.4858    0.4965   -0.0007 C   0  0  0  0  0  0  0  0  0  0  0  0
    2.5219   -0.8874   -0.0010 C   0  0  0  0  0  0  0  0  0  0  0  0
    3.7554   -1.5473   -0.0004 C   0  0  0  0  0  0  0  0  0  0  0  0
    3.8308   -2.9539   -0.0010 C   0  0  0  0  0  0  0  0  0  0  0  0
    5.0474   -3.5603   -0.0009 C   0  0  0  0  0  0  0  0  0  0  0  0
    6.2314   -2.8253    0.0004 C   0  0  0  0  0  0  0  0  0  0  0  0
    6.2277   -1.4661    0.0016 C   0  0  0  0  0  0  0  0  0  0  0  0
    4.9997   -0.7745    0.0005 C   0  0  0  0  0  0  0  0  0  0  0  0
    4.9561    0.6223    0.0012 C   0  0  0  0  0  0  0  0  0  0  0  0
    3.7275    1.2715    0.0002 C   0  0  0  0  0  0  0  0  0  0  0  0
    3.6589    2.7325    0.0013 C   0  0  0  0  0  0  0  0  0  0  0  0
    2.4729    3.3673    0.0007 C   0  0  0  0  0  0  0  0  0  0  0  0
    1.2085    2.6344   -0.0001 C   0  0  0  0  0  0  0  0  0  0  0  0
   -0.0001    3.3314   -0.0008 C   0  0  0  0  0  0  0  0  0  0  0  0
   -1.2086    2.6344   -0.0002 C   0  0  0  0  0  0  0  0  0  0  0  0
   -2.4730    3.3673   -0.0008 C   0  0  0  0  0  0  0  0  0  0  0  0
   -3.6591    2.7325    0.0008 C   0  0  0  0  0  0  0  0  0  0  0  0
   -2.5219   -0.8874   -0.0011 C   0  0  0  0  0  0  0  0  0  0  0  0
   -3.7554   -1.5473   -0.0005 C   0  0  0  0  0  0  0  0  0  0  0  0
   -2.9278   -3.5465    0.0028 H   0  0  0  0  0  0  0  0  0  0  0  0
   -5.0974   -4.6391   -0.0002 H   0  0  0  0  0  0  0  0  0  0  0  0
   -7.1756   -3.3493    0.0024 H   0  0  0  0  0  0  0  0  0  0  0  0
   -7.1593   -0.9203    0.0017 H   0  0  0  0  0  0  0  0  0  0  0  0
   -5.8724    1.1939    0.0009 H   0  0  0  0  0  0  0  0  0  0  0  0
   -0.0001   -0.5578   -0.0014 H   0  0  0  0  0  0  0  0  0  0  0  0
    1.6028   -1.4545   -0.0013 H   0  0  0  0  0  0  0  0  0  0  0  0
    2.9280   -3.5466   -0.0013 H   0  0  0  0  0  0  0  0  0  0  0  0
    5.0977   -4.6391   -0.0014 H   0  0  0  0  0  0  0  0  0  0  0  0
    7.1759   -3.3490    0.0009 H   0  0  0  0  0  0  0  0  0  0  0  0
    7.1593   -0.9199    0.0033 H   0  0  0  0  0  0  0  0  0  0  0  0
    5.8723    1.1941    0.0033 H   0  0  0  0  0  0  0  0  0  0  0  0
    4.5722    3.3090    0.0030 H   0  0  0  0  0  0  0  0  0  0  0  0
    2.4546    4.4471    0.0020 H   0  0  0  0  0  0  0  0  0  0  0  0
   -0.0001    4.4114   -0.0010 H   0  0  0  0  0  0  0  0  0  0  0  0
   -2.4548    4.4471   -0.0017 H   0  0  0  0  0  0  0  0  0  0  0  0
   -4.5723    3.3090   -0.0000 H   0  0  0  0  0  0  0  0  0  0  0  0
   -1.6028   -1.4544   -0.0020 H   0  0  0  0  0  0  0  0  0  0  0  0
  1  2  2  0  0  0  0
  2  3  1  0  0  0  0
  3  4  2  0  0  0  0
  4  5  1  0  0  0  0
  5  6  2  0  0  0  0
  6  7  1  0  0  0  0
  7  8  1  0  0  0  0
  8  9  2  0  0  0  0
  9 10  1  0  0  0  0
 10 11  2  0  0  0  0
 11 12  1  0  0  0  0
 12 13  2  0  0  0  0
 13 14  1  0  0  0  0
 14 15  2  0  0  0  0
 15 16  1  0  0  0  0
 16 17  2  0  0  0  0
 17 18  1  0  0  0  0
 18 19  2  0  0  0  0
 14 19  1  0  0  0  0
 19 20  1  0  0  0  0
 20 21  2  0  0  0  0
 12 21  1  0  0  0  0
 21 22  1  0  0  0  0
 22 23  2  0  0  0  0
 23 24  1  0  0  0  0
 11 24  1  0  0  0  0
 24 25  2  0  0  0  0
 25 26  1  0  0  0  0
  9 26  1  0  0  0  0
 26 27  2  0  0  0  0
 27 28  1  0  0  0  0
  7 28  2  0  0  0  0
  8 29  1  0  0  0  0
 29 30  2  0  0  0  0
  1 30  1  0  0  0  0
  5 30  1  0  0  0  0
  1 31  1  0  0  0  0
  2 32  1  0  0  0  0
  3 33  1  0  0  0  0
  4 34  1  0  0  0  0
  6 35  1  0  0  0  0
 10 36  1  0  0  0  0
 13 37  1  0  0  0  0
 15 38  1  0  0  0  0
 16 39  1  0  0  0  0
 17 40  1  0  0  0  0
 18 41  1  0  0  0  0
 20 42  1  0  0  0  0
 22 43  1  0  0  0  0
 23 44  1  0  0  0  0
 25 45  1  0  0  0  0
 27 46  1  0  0  0  0
 28 47  1  0  0  0  0
 29 48  1  0  0  0  0
M  END
$$$$
