C24H14
APtclcactv01171906283D 0   0.00000     0.00000
 
 38 43  0  0  0  0  0  0  0  0999 V2000
    4.4121   -1.9016   -0.0027 C   0  0  0  0  0  0  0  0  0  0  0  0
    3.0654   -1.5146   -0.0018 C   0  0  0  0  0  0  0  0  0  0  0  0
    2.0246   -2.4685   -0.0005 C   0  0  0  0  0  0  0  0  0  0  0  0
    0.7253   -2.0747    0.0005 C   0  0  0  0  0  0  0  0  0  0  0  0
    0.3858   -0.7107    0.0003 C   0  0  0  0  0  0  0  0  0  0  0  0
   -1.0128   -0.2690    0.0004 C   0  0  0  0  0  0  0  0  0  0  0  0
   -2.0471   -1.1946    0.0007 C   0  0  0  0  0  0  0  0  0  0  0  0
   -3.3718   -0.7539    0.0004 C   0  0  0  0  0  0  0  0  0  0  0  0
   -4.4453   -1.6680    0.0011 C   0  0  0  0  0  0  0  0  0  0  0  0
   -5.7216   -1.2032    0.0013 C   0  0  0  0  0  0  0  0  0  0  0  0
   -6.0047    0.1626    0.0004 C   0  0  0  0  0  0  0  0  0  0  0  0
   -5.0182    1.0956   -0.0007 C   0  0  0  0  0  0  0  0  0  0  0  0
   -3.6688    0.6819   -0.0001 C   0  0  0  0  0  0  0  0  0  0  0  0
   -2.6307    1.6108   -0.0018 C   0  0  0  0  0  0  0  0  0  0  0  0
   -1.3042    1.1689   -0.0002 C   0  0  0  0  0  0  0  0  0  0  0  0
   -0.2520    2.1044   -0.0016 C   0  0  0  0  0  0  0  0  0  0  0  0
    1.0680    1.6909   -0.0000 C   0  0  0  0  0  0  0  0  0  0  0  0
    2.1590    2.6680   -0.0011 C   0  0  0  0  0  0  0  0  0  0  0  0
    3.4436    2.2538    0.0008 C   0  0  0  0  0  0  0  0  0  0  0  0
    3.7764    0.8313    0.0040 C   0  0  0  0  0  0  0  0  0  0  0  0
    2.7472   -0.1367   -0.0016 C   0  0  0  0  0  0  0  0  0  0  0  0
    1.3980    0.2636   -0.0006 C   0  0  0  0  0  0  0  0  0  0  0  0
    5.1058    0.4050    0.0066 C   0  0  0  0  0  0  0  0  0  0  0  0
    5.4054   -0.9459   -0.0035 C   0  0  0  0  0  0  0  0  0  0  0  0
    4.6721   -2.9498    0.0016 H   0  0  0  0  0  0  0  0  0  0  0  0
    2.2643   -3.5216   -0.0007 H   0  0  0  0  0  0  0  0  0  0  0  0
   -0.0574   -2.8190    0.0010 H   0  0  0  0  0  0  0  0  0  0  0  0
   -1.8279   -2.2521    0.0008 H   0  0  0  0  0  0  0  0  0  0  0  0
   -4.2540   -2.7309    0.0011 H   0  0  0  0  0  0  0  0  0  0  0  0
   -6.5386   -1.9096    0.0018 H   0  0  0  0  0  0  0  0  0  0  0  0
   -7.0350    0.4863    0.0003 H   0  0  0  0  0  0  0  0  0  0  0  0
   -5.2645    2.1471   -0.0021 H   0  0  0  0  0  0  0  0  0  0  0  0
   -2.8497    2.6683   -0.0035 H   0  0  0  0  0  0  0  0  0  0  0  0
   -0.4788    3.1603   -0.0042 H   0  0  0  0  0  0  0  0  0  0  0  0
    1.9348    3.7245   -0.0038 H   0  0  0  0  0  0  0  0  0  0  0  0
    4.2380    2.9854   -0.0004 H   0  0  0  0  0  0  0  0  0  0  0  0
    5.9038    1.1327    0.0055 H   0  0  0  0  0  0  0  0  0  0  0  0
    6.4393   -1.2581   -0.0012 H   0  0  0  0  0  0  0  0  0  0  0  0
  1  2  2  0  0  0  0
  2  3  1  0  0  0  0
  3  4  2  0  0  0  0
  4  5  1  0  0  0  0
  5  6  2  0  0  0  0
  6  7  1  0  0  0  0
  7  8  2  0  0  0  0
  8  9  1  0  0  0  0
  9 10  2  0  0  0  0
 10 11  1  0  0  0  0
 11 12  2  0  0  0  0
 12 13  1  0  0  0  0
  8 13  1  0  0  0  0
 13 14  2  0  0  0  0
 14 15  1  0  0  0  0
  6 15  1  0  0  0  0
 15 16  2  0  0  0  0
 16 17  1  0  0  0  0
 17 18  2  0  0  0  0
 18 19  1  0  0  0  0
 19 20  2  0  0  0  0
 20 21  1  0  0  0  0
  2 21  1  0  0  0  0
 21 22  2  0  0  0  0
  5 22  1  0  0  0  0
 17 22  1  0  0  0  0
 20 23  1  0  0  0  0
 23 24  2  0  0  0  0
  1 24  1  0  0  0  0
  1 25  1  0  0  0  0
  3 26  1  0  0  0  0
  4 27  1  0  0  0  0
  7 28  1  0  0  0  0
  9 29  1  0  0  0  0
 10 30  1  0  0  0  0
 11 31  1  0  0  0  0
 12 32  1  0  0  0  0
 14 33  1  0  0  0  0
 16 34  1  0  0  0  0
 18 35  1  0  0  0  0
 19 36  1  0  0  0  0
 23 37  1  0  0  0  0
 24 38  1  0  0  0  0
M  END
$$$$
