C24H14
APtclcactv01171906293D 0   0.00000     0.00000
 
 38 43  0  0  0  0  0  0  0  0999 V2000
    4.4094   -1.9039   -0.0001 C   0  0  0  0  0  0  0  0  0  0  0  0
    3.0633   -1.5151   -0.0004 C   0  0  0  0  0  0  0  0  0  0  0  0
    2.0217   -2.4682   -0.0019 C   0  0  0  0  0  0  0  0  0  0  0  0
    0.7230   -2.0730   -0.0026 C   0  0  0  0  0  0  0  0  0  0  0  0
    0.3855   -0.7084   -0.0019 C   0  0  0  0  0  0  0  0  0  0  0  0
    1.3980    0.2652   -0.0006 C   0  0  0  0  0  0  0  0  0  0  0  0
    2.7469   -0.1369    0.0002 C   0  0  0  0  0  0  0  0  0  0  0  0
    3.7770    0.8299    0.0010 C   0  0  0  0  0  0  0  0  0  0  0  0
    3.4451    2.2528    0.0006 C   0  0  0  0  0  0  0  0  0  0  0  0
    2.1611    2.6685   -0.0001 C   0  0  0  0  0  0  0  0  0  0  0  0
    1.0687    1.6925    0.0000 C   0  0  0  0  0  0  0  0  0  0  0  0
   -0.2513    2.1066   -0.0005 C   0  0  0  0  0  0  0  0  0  0  0  0
   -1.3042    1.1716   -0.0003 C   0  0  0  0  0  0  0  0  0  0  0  0
   -2.6312    1.6122   -0.0007 C   0  0  0  0  0  0  0  0  0  0  0  0
   -3.6685    0.6824    0.0000 C   0  0  0  0  0  0  0  0  0  0  0  0
   -5.0186    1.0942   -0.0008 C   0  0  0  0  0  0  0  0  0  0  0  0
   -6.0039    0.1599   -0.0005 C   0  0  0  0  0  0  0  0  0  0  0  0
   -5.7198   -1.2056    0.0009 C   0  0  0  0  0  0  0  0  0  0  0  0
   -4.4429   -1.6688    0.0022 C   0  0  0  0  0  0  0  0  0  0  0  0
   -3.3707   -0.7533    0.0011 C   0  0  0  0  0  0  0  0  0  0  0  0
   -2.0459   -1.1929    0.0029 C   0  0  0  0  0  0  0  0  0  0  0  0
   -1.0128   -0.2662   -0.0021 C   0  0  0  0  0  0  0  0  0  0  0  0
    5.1058    0.4020    0.0018 C   0  0  0  0  0  0  0  0  0  0  0  0
    5.4038   -0.9493    0.0009 C   0  0  0  0  0  0  0  0  0  0  0  0
    4.6682   -2.9524    0.0040 H   0  0  0  0  0  0  0  0  0  0  0  0
    2.2604   -3.5215   -0.0028 H   0  0  0  0  0  0  0  0  0  0  0  0
   -0.0606   -2.8162   -0.0040 H   0  0  0  0  0  0  0  0  0  0  0  0
    4.2401    2.9838    0.0012 H   0  0  0  0  0  0  0  0  0  0  0  0
    1.9380    3.7252   -0.0001 H   0  0  0  0  0  0  0  0  0  0  0  0
   -0.4775    3.1626   -0.0007 H   0  0  0  0  0  0  0  0  0  0  0  0
   -2.8512    2.6696   -0.0012 H   0  0  0  0  0  0  0  0  0  0  0  0
   -5.2663    2.1454   -0.0013 H   0  0  0  0  0  0  0  0  0  0  0  0
   -7.0346    0.4826   -0.0012 H   0  0  0  0  0  0  0  0  0  0  0  0
   -6.5360   -1.9128    0.0015 H   0  0  0  0  0  0  0  0  0  0  0  0
   -4.2503   -2.7315    0.0041 H   0  0  0  0  0  0  0  0  0  0  0  0
   -1.8256   -2.2502    0.0048 H   0  0  0  0  0  0  0  0  0  0  0  0
    5.9047    1.1288    0.0022 H   0  0  0  0  0  0  0  0  0  0  0  0
    6.4374   -1.2626    0.0019 H   0  0  0  0  0  0  0  0  0  0  0  0
  1  2  2  0  0  0  0
  2  3  1  0  0  0  0
  3  4  2  0  0  0  0
  4  5  1  0  0  0  0
  5  6  1  0  0  0  0
  6  7  1  0  0  0  0
  2  7  1  0  0  0  0
  7  8  2  0  0  0  0
  8  9  1  0  0  0  0
  9 10  2  0  0  0  0
 10 11  1  0  0  0  0
  6 11  2  0  0  0  0
 11 12  1  0  0  0  0
 12 13  2  0  0  0  0
 13 14  1  0  0  0  0
 14 15  2  0  0  0  0
 15 16  1  0  0  0  0
 16 17  2  0  0  0  0
 17 18  1  0  0  0  0
 18 19  2  0  0  0  0
 19 20  1  0  0  0  0
 15 20  1  0  0  0  0
 20 21  2  0  0  0  0
 21 22  1  0  0  0  0
  5 22  2  0  0  0  0
 13 22  1  0  0  0  0
  8 23  1  0  0  0  0
 23 24  2  0  0  0  0
  1 24  1  0  0  0  0
  1 25  1  0  0  0  0
  3 26  1  0  0  0  0
  4 27  1  0  0  0  0
  9 28  1  0  0  0  0
 10 29  1  0  0  0  0
 12 30  1  0  0  0  0
 14 31  1  0  0  0  0
 16 32  1  0  0  0  0
 17 33  1  0  0  0  0
 18 34  1  0  0  0  0
 19 35  1  0  0  0  0
 21 36  1  0  0  0  0
 23 37  1  0  0  0  0
 24 38  1  0  0  0  0
M  END
$$$$
