C20H12
APtclcactv01171906293D 0   0.00000     0.00000
 
 32 36  0  0  0  0  0  0  0  0999 V2000
   -2.2611   -2.3347   -0.0016 C   0  0  0  0  0  0  0  0  0  0  0  0
   -3.5275   -1.8326   -0.0021 C   0  0  0  0  0  0  0  0  0  0  0  0
   -3.4521   -0.3721   -0.0006 C   0  0  0  0  0  0  0  0  0  0  0  0
   -4.3347    0.7018    0.0000 C   0  0  0  0  0  0  0  0  0  0  0  0
   -3.8398    2.0034    0.0010 C   0  0  0  0  0  0  0  0  0  0  0  0
   -2.5023    2.2968    0.0009 C   0  0  0  0  0  0  0  0  0  0  0  0
   -1.5716    1.2406    0.0006 C   0  0  0  0  0  0  0  0  0  0  0  0
   -0.1793    1.3950    0.0002 C   0  0  0  0  0  0  0  0  0  0  0  0
    0.6284    0.2583    0.0002 C   0  0  0  0  0  0  0  0  0  0  0  0
    0.0856   -1.0564    0.0004 C   0  0  0  0  0  0  0  0  0  0  0  0
   -1.3137   -1.2248    0.0001 C   0  0  0  0  0  0  0  0  0  0  0  0
   -2.0832   -0.0613    0.0003 C   0  0  0  0  0  0  0  0  0  0  0  0
    0.9451   -2.1736    0.0016 C   0  0  0  0  0  0  0  0  0  0  0  0
    2.2875   -2.0354    0.0017 C   0  0  0  0  0  0  0  0  0  0  0  0
    2.8955   -0.7576    0.0008 C   0  0  0  0  0  0  0  0  0  0  0  0
    4.2913   -0.6262   -0.0002 C   0  0  0  0  0  0  0  0  0  0  0  0
    4.8572    0.6154   -0.0013 C   0  0  0  0  0  0  0  0  0  0  0  0
    4.0679    1.7588   -0.0012 C   0  0  0  0  0  0  0  0  0  0  0  0
    2.6945    1.6620   -0.0004 C   0  0  0  0  0  0  0  0  0  0  0  0
    2.0928    0.4033   -0.0004 C   0  0  0  0  0  0  0  0  0  0  0  0
   -2.0009   -3.3829    0.0017 H   0  0  0  0  0  0  0  0  0  0  0  0
   -4.4363   -2.4161   -0.0034 H   0  0  0  0  0  0  0  0  0  0  0  0
   -5.4005    0.5273   -0.0005 H   0  0  0  0  0  0  0  0  0  0  0  0
   -4.5451    2.8212    0.0014 H   0  0  0  0  0  0  0  0  0  0  0  0
   -2.1664    3.3232    0.0006 H   0  0  0  0  0  0  0  0  0  0  0  0
    0.2623    2.3806   -0.0005 H   0  0  0  0  0  0  0  0  0  0  0  0
    0.5184   -3.1658    0.0029 H   0  0  0  0  0  0  0  0  0  0  0  0
    2.9102   -2.9178    0.0027 H   0  0  0  0  0  0  0  0  0  0  0  0
    4.9175   -1.5062    0.0003 H   0  0  0  0  0  0  0  0  0  0  0  0
    5.9330    0.7106   -0.0019 H   0  0  0  0  0  0  0  0  0  0  0  0
    4.5359    2.7322   -0.0013 H   0  0  0  0  0  0  0  0  0  0  0  0
    2.0868    2.5548    0.0002 H   0  0  0  0  0  0  0  0  0  0  0  0
  1  2  2  0  0  0  0
  2  3  1  0  0  0  0
  3  4  1  0  0  0  0
  4  5  2  0  0  0  0
  5  6  1  0  0  0  0
  6  7  2  0  0  0  0
  7  8  1  0  0  0  0
  8  9  2  0  0  0  0
  9 10  1  0  0  0  0
 10 11  2  0  0  0  0
  1 11  1  0  0  0  0
 11 12  1  0  0  0  0
  3 12  2  0  0  0  0
  7 12  1  0  0  0  0
 10 13  1  0  0  0  0
 13 14  2  0  0  0  0
 14 15  1  0  0  0  0
 15 16  1  0  0  0  0
 16 17  2  0  0  0  0
 17 18  1  0  0  0  0
 18 19  2  0  0  0  0
 19 20  1  0  0  0  0
 15 20  2  0  0  0  0
  9 20  1  0  0  0  0
  1 21  1  0  0  0  0
  2 22  1  0  0  0  0
  4 23  1  0  0  0  0
  5 24  1  0  0  0  0
  6 25  1  0  0  0  0
  8 26  1  0  0  0  0
 13 27  1  0  0  0  0
 14 28  1  0  0  0  0
 16 29  1  0  0  0  0
 17 30  1  0  0  0  0
 18 31  1  0  0  0  0
 19 32  1  0  0  0  0
M  END
$$$$
