C24H14
APtclcactv01171906283D 0   0.00000     0.00000
 
 38 43  0  0  0  0  0  0  0  0999 V2000
   -1.3976   -2.7051   -0.0042 C   0  0  0  0  0  0  0  0  0  0  0  0
   -2.4483   -3.5971   -0.0034 C   0  0  0  0  0  0  0  0  0  0  0  0
   -3.7576   -3.1411    0.0005 C   0  0  0  0  0  0  0  0  0  0  0  0
   -4.0267   -1.7883    0.0025 C   0  0  0  0  0  0  0  0  0  0  0  0
   -2.9838   -0.8674    0.0008 C   0  0  0  0  0  0  0  0  0  0  0  0
   -2.9436    0.6060    0.0012 C   0  0  0  0  0  0  0  0  0  0  0  0
   -3.8563    1.6441    0.0025 C   0  0  0  0  0  0  0  0  0  0  0  0
   -3.4225    2.9695    0.0020 C   0  0  0  0  0  0  0  0  0  0  0  0
   -2.1079    3.3364   -0.0001 C   0  0  0  0  0  0  0  0  0  0  0  0
   -1.1189    2.3290   -0.0009 C   0  0  0  0  0  0  0  0  0  0  0  0
    0.2534    2.5613   -0.0020 C   0  0  0  0  0  0  0  0  0  0  0  0
    1.1347    1.4624   -0.0015 C   0  0  0  0  0  0  0  0  0  0  0  0
    0.6361    0.0777   -0.0006 C   0  0  0  0  0  0  0  0  0  0  0  0
   -0.7589   -0.1579   -0.0009 C   0  0  0  0  0  0  0  0  0  0  0  0
   -1.6434   -1.3330   -0.0011 C   0  0  0  0  0  0  0  0  0  0  0  0
   -1.5830    0.9561   -0.0001 C   0  0  0  0  0  0  0  0  0  0  0  0
    1.5308   -0.9908    0.0010 C   0  0  0  0  0  0  0  0  0  0  0  0
    2.9017   -0.7477    0.0014 C   0  0  0  0  0  0  0  0  0  0  0  0
    3.8316   -1.8096    0.0032 C   0  0  0  0  0  0  0  0  0  0  0  0
    5.1611   -1.5358    0.0026 C   0  0  0  0  0  0  0  0  0  0  0  0
    5.6406   -0.2248    0.0006 C   0  0  0  0  0  0  0  0  0  0  0  0
    4.8022    0.8420   -0.0011 C   0  0  0  0  0  0  0  0  0  0  0  0
    3.4052    0.6308   -0.0007 C   0  0  0  0  0  0  0  0  0  0  0  0
    2.5173    1.7000   -0.0023 C   0  0  0  0  0  0  0  0  0  0  0  0
   -0.3812   -3.0702   -0.0027 H   0  0  0  0  0  0  0  0  0  0  0  0
   -2.2503   -4.6588   -0.0061 H   0  0  0  0  0  0  0  0  0  0  0  0
   -4.5724   -3.8500    0.0015 H   0  0  0  0  0  0  0  0  0  0  0  0
   -5.0500   -1.4430    0.0052 H   0  0  0  0  0  0  0  0  0  0  0  0
   -4.9143    1.4269    0.0036 H   0  0  0  0  0  0  0  0  0  0  0  0
   -4.1692    3.7499    0.0029 H   0  0  0  0  0  0  0  0  0  0  0  0
   -1.8289    4.3798   -0.0014 H   0  0  0  0  0  0  0  0  0  0  0  0
    0.6375    3.5706   -0.0036 H   0  0  0  0  0  0  0  0  0  0  0  0
    1.1614   -2.0056    0.0024 H   0  0  0  0  0  0  0  0  0  0  0  0
    3.4876   -2.8333    0.0054 H   0  0  0  0  0  0  0  0  0  0  0  0
    5.8664   -2.3537    0.0040 H   0  0  0  0  0  0  0  0  0  0  0  0
    6.7072   -0.0552    0.0007 H   0  0  0  0  0  0  0  0  0  0  0  0
    5.2001    1.8461   -0.0024 H   0  0  0  0  0  0  0  0  0  0  0  0
    2.8915    2.7131   -0.0045 H   0  0  0  0  0  0  0  0  0  0  0  0
  1  2  2  0  0  0  0
  2  3  1  0  0  0  0
  3  4  2  0  0  0  0
  4  5  1  0  0  0  0
  5  6  1  0  0  0  0
  6  7  1  0  0  0  0
  7  8  2  0  0  0  0
  8  9  1  0  0  0  0
  9 10  2  0  0  0  0
 10 11  1  0  0  0  0
 11 12  2  0  0  0  0
 12 13  1  0  0  0  0
 13 14  2  0  0  0  0
 14 15  1  0  0  0  0
  1 15  1  0  0  0  0
  5 15  2  0  0  0  0
 14 16  1  0  0  0  0
 10 16  1  0  0  0  0
  6 16  2  0  0  0  0
 13 17  1  0  0  0  0
 17 18  2  0  0  0  0
 18 19  1  0  0  0  0
 19 20  2  0  0  0  0
 20 21  1  0  0  0  0
 21 22  2  0  0  0  0
 22 23  1  0  0  0  0
 18 23  1  0  0  0  0
 23 24  2  0  0  0  0
 12 24  1  0  0  0  0
  1 25  1  0  0  0  0
  2 26  1  0  0  0  0
  3 27  1  0  0  0  0
  4 28  1  0  0  0  0
  7 29  1  0  0  0  0
  8 30  1  0  0  0  0
  9 31  1  0  0  0  0
 11 32  1  0  0  0  0
 17 33  1  0  0  0  0
 19 34  1  0  0  0  0
 20 35  1  0  0  0  0
 21 36  1  0  0  0  0
 22 37  1  0  0  0  0
 24 38  1  0  0  0  0
M  END
$$$$
