C18H12
APtclcactv01171906283D 0   0.00000     0.00000
 
 30 33  0  0  0  0  0  0  0  0999 V2000
   -3.6538   -1.4121   -0.0004 C   0  0  0  0  0  0  0  0  0  0  0  0
   -4.8076   -0.6984   -0.0005 C   0  0  0  0  0  0  0  0  0  0  0  0
   -4.8077    0.6979   -0.0003 C   0  0  0  0  0  0  0  0  0  0  0  0
   -3.6541    1.4120    0.0001 C   0  0  0  0  0  0  0  0  0  0  0  0
   -2.4144    0.7342    0.0006 C   0  0  0  0  0  0  0  0  0  0  0  0
   -1.2139    1.4349    0.0005 C   0  0  0  0  0  0  0  0  0  0  0  0
    0.0000    0.7350    0.0005 C   0  0  0  0  0  0  0  0  0  0  0  0
    1.2139    1.4348   -0.0002 C   0  0  0  0  0  0  0  0  0  0  0  0
    2.4144    0.7342   -0.0007 C   0  0  0  0  0  0  0  0  0  0  0  0
    3.6541    1.4120   -0.0005 C   0  0  0  0  0  0  0  0  0  0  0  0
    4.8077    0.6979    0.0001 C   0  0  0  0  0  0  0  0  0  0  0  0
    4.8076   -0.6983    0.0005 C   0  0  0  0  0  0  0  0  0  0  0  0
    3.6538   -1.4121    0.0003 C   0  0  0  0  0  0  0  0  0  0  0  0
    2.4143   -0.7341   -0.0003 C   0  0  0  0  0  0  0  0  0  0  0  0
    1.2138   -1.4346   -0.0009 C   0  0  0  0  0  0  0  0  0  0  0  0
    0.0000   -0.7346    0.0009 C   0  0  0  0  0  0  0  0  0  0  0  0
   -1.2138   -1.4345    0.0001 C   0  0  0  0  0  0  0  0  0  0  0  0
   -2.4143   -0.7340    0.0004 C   0  0  0  0  0  0  0  0  0  0  0  0
   -3.6827   -2.4917    0.0035 H   0  0  0  0  0  0  0  0  0  0  0  0
   -5.7510   -1.2241   -0.0012 H   0  0  0  0  0  0  0  0  0  0  0  0
   -5.7512    1.2234   -0.0007 H   0  0  0  0  0  0  0  0  0  0  0  0
   -3.6832    2.4916   -0.0004 H   0  0  0  0  0  0  0  0  0  0  0  0
   -1.2168    2.5149   -0.0000 H   0  0  0  0  0  0  0  0  0  0  0  0
    1.2168    2.5148   -0.0008 H   0  0  0  0  0  0  0  0  0  0  0  0
    3.6832    2.4916   -0.0011 H   0  0  0  0  0  0  0  0  0  0  0  0
    5.7512    1.2235   -0.0002 H   0  0  0  0  0  0  0  0  0  0  0  0
    5.7510   -1.2240    0.0005 H   0  0  0  0  0  0  0  0  0  0  0  0
    3.6827   -2.4918    0.0007 H   0  0  0  0  0  0  0  0  0  0  0  0
    1.2165   -2.5146   -0.0011 H   0  0  0  0  0  0  0  0  0  0  0  0
   -1.2166   -2.5145   -0.0021 H   0  0  0  0  0  0  0  0  0  0  0  0
  1  2  2  0  0  0  0
  2  3  1  0  0  0  0
  3  4  2  0  0  0  0
  4  5  1  0  0  0  0
  5  6  2  0  0  0  0
  6  7  1  0  0  0  0
  7  8  2  0  0  0  0
  8  9  1  0  0  0  0
  9 10  2  0  0  0  0
 10 11  1  0  0  0  0
 11 12  2  0  0  0  0
 12 13  1  0  0  0  0
 13 14  2  0  0  0  0
  9 14  1  0  0  0  0
 14 15  1  0  0  0  0
 15 16  2  0  0  0  0
  7 16  1  0  0  0  0
 16 17  1  0  0  0  0
 17 18  2  0  0  0  0
  1 18  1  0  0  0  0
  5 18  1  0  0  0  0
  1 19  1  0  0  0  0
  2 20  1  0  0  0  0
  3 21  1  0  0  0  0
  4 22  1  0  0  0  0
  6 23  1  0  0  0  0
  8 24  1  0  0  0  0
 10 25  1  0  0  0  0
 11 26  1  0  0  0  0
 12 27  1  0  0  0  0
 13 28  1  0  0  0  0
 15 29  1  0  0  0  0
 17 30  1  0  0  0  0
M  END
$$$$
