C30H16
APtclcactv01171906283D 0   0.00000     0.00000
 
 46 53  0  0  0  0  0  0  0  0999 V2000
    5.8494   -1.4148   -0.0014 C   0  0  0  0  0  0  0  0  0  0  0  0
    4.5155   -0.9525   -0.0001 C   0  0  0  0  0  0  0  0  0  0  0  0
    3.4580   -1.8688    0.0012 C   0  0  0  0  0  0  0  0  0  0  0  0
    2.1321   -1.4306    0.0021 C   0  0  0  0  0  0  0  0  0  0  0  0
    1.0664   -2.3519    0.0025 C   0  0  0  0  0  0  0  0  0  0  0  0
   -0.2487   -1.9030    0.0024 C   0  0  0  0  0  0  0  0  0  0  0  0
   -1.3478   -2.7974    0.0019 C   0  0  0  0  0  0  0  0  0  0  0  0
   -2.6178   -2.3262    0.0008 C   0  0  0  0  0  0  0  0  0  0  0  0
   -2.9022   -0.9464    0.0006 C   0  0  0  0  0  0  0  0  0  0  0  0
   -4.2748   -0.4470   -0.0011 C   0  0  0  0  0  0  0  0  0  0  0  0
   -5.3589   -1.3344   -0.0026 C   0  0  0  0  0  0  0  0  0  0  0  0
   -6.6324   -0.8499   -0.0046 C   0  0  0  0  0  0  0  0  0  0  0  0
   -6.8749    0.5226   -0.0056 C   0  0  0  0  0  0  0  0  0  0  0  0
   -5.8494    1.4147   -0.0047 C   0  0  0  0  0  0  0  0  0  0  0  0
   -4.5154    0.9525   -0.0017 C   0  0  0  0  0  0  0  0  0  0  0  0
   -3.4581    1.8689   -0.0011 C   0  0  0  0  0  0  0  0  0  0  0  0
   -2.1321    1.4307    0.0018 C   0  0  0  0  0  0  0  0  0  0  0  0
   -1.0664    2.3520    0.0019 C   0  0  0  0  0  0  0  0  0  0  0  0
    0.2487    1.9031    0.0043 C   0  0  0  0  0  0  0  0  0  0  0  0
    1.3478    2.7975    0.0049 C   0  0  0  0  0  0  0  0  0  0  0  0
    2.6178    2.3262    0.0073 C   0  0  0  0  0  0  0  0  0  0  0  0
    2.9022    0.9464    0.0093 C   0  0  0  0  0  0  0  0  0  0  0  0
    1.8530    0.0083    0.0019 C   0  0  0  0  0  0  0  0  0  0  0  0
    0.5249    0.4645    0.0069 C   0  0  0  0  0  0  0  0  0  0  0  0
   -0.5249   -0.4644    0.0022 C   0  0  0  0  0  0  0  0  0  0  0  0
   -1.8530   -0.0082    0.0016 C   0  0  0  0  0  0  0  0  0  0  0  0
    4.2748    0.4470    0.0008 C   0  0  0  0  0  0  0  0  0  0  0  0
    5.3589    1.3344   -0.0089 C   0  0  0  0  0  0  0  0  0  0  0  0
    6.6324    0.8498   -0.0166 C   0  0  0  0  0  0  0  0  0  0  0  0
    6.8749   -0.5228   -0.0017 C   0  0  0  0  0  0  0  0  0  0  0  0
    6.0545   -2.4752    0.0024 H   0  0  0  0  0  0  0  0  0  0  0  0
    3.6699   -2.9279    0.0013 H   0  0  0  0  0  0  0  0  0  0  0  0
    1.2724   -3.4121    0.0026 H   0  0  0  0  0  0  0  0  0  0  0  0
   -1.1717   -3.8630    0.0020 H   0  0  0  0  0  0  0  0  0  0  0  0
   -3.4373   -3.0297   -0.0003 H   0  0  0  0  0  0  0  0  0  0  0  0
   -5.1855   -2.4004   -0.0025 H   0  0  0  0  0  0  0  0  0  0  0  0
   -7.4646   -1.5383   -0.0058 H   0  0  0  0  0  0  0  0  0  0  0  0
   -7.8931    0.8828   -0.0076 H   0  0  0  0  0  0  0  0  0  0  0  0
   -6.0546    2.4750   -0.0062 H   0  0  0  0  0  0  0  0  0  0  0  0
   -3.6699    2.9279   -0.0034 H   0  0  0  0  0  0  0  0  0  0  0  0
   -1.2724    3.4121   -0.0004 H   0  0  0  0  0  0  0  0  0  0  0  0
    1.1717    3.8630    0.0031 H   0  0  0  0  0  0  0  0  0  0  0  0
    3.4373    3.0297    0.0074 H   0  0  0  0  0  0  0  0  0  0  0  0
    5.1855    2.4004   -0.0107 H   0  0  0  0  0  0  0  0  0  0  0  0
    7.4646    1.5381   -0.0245 H   0  0  0  0  0  0  0  0  0  0  0  0
    7.8931   -0.8830   -0.0079 H   0  0  0  0  0  0  0  0  0  0  0  0
  1  2  2  0  0  0  0
  2  3  1  0  0  0  0
  3  4  2  0  0  0  0
  4  5  1  0  0  0  0
  5  6  2  0  0  0  0
  6  7  1  0  0  0  0
  7  8  2  0  0  0  0
  8  9  1  0  0  0  0
  9 10  2  0  0  0  0
 10 11  1  0  0  0  0
 11 12  2  0  0  0  0
 12 13  1  0  0  0  0
 13 14  2  0  0  0  0
 14 15  1  0  0  0  0
 10 15  1  0  0  0  0
 15 16  2  0  0  0  0
 16 17  1  0  0  0  0
 17 18  2  0  0  0  0
 18 19  1  0  0  0  0
 19 20  2  0  0  0  0
 20 21  1  0  0  0  0
 21 22  2  0  0  0  0
 22 23  1  0  0  0  0
  4 23  1  0  0  0  0
 23 24  2  0  0  0  0
 19 24  1  0  0  0  0
 24 25  1  0  0  0  0
  6 25  1  0  0  0  0
 25 26  2  0  0  0  0
  9 26  1  0  0  0  0
 17 26  1  0  0  0  0
 22 27  1  0  0  0  0
  2 27  1  0  0  0  0
 27 28  2  0  0  0  0
 28 29  1  0  0  0  0
 29 30  2  0  0  0  0
  1 30  1  0  0  0  0
  1 31  1  0  0  0  0
  3 32  1  0  0  0  0
  5 33  1  0  0  0  0
  7 34  1  0  0  0  0
  8 35  1  0  0  0  0
 11 36  1  0  0  0  0
 12 37  1  0  0  0  0
 13 38  1  0  0  0  0
 14 39  1  0  0  0  0
 16 40  1  0  0  0  0
 18 41  1  0  0  0  0
 20 42  1  0  0  0  0
 21 43  1  0  0  0  0
 28 44  1  0  0  0  0
 29 45  1  0  0  0  0
 30 46  1  0  0  0  0
M  END
$$$$
