C26H16
APtclcactv01171906283D 0   0.00000     0.00000
 
 42 47  0  0  0  0  0  0  0  0999 V2000
    5.9235   -1.0960    0.0015 C   0  0  0  0  0  0  0  0  0  0  0  0
    4.5347   -0.8944    0.0004 C   0  0  0  0  0  0  0  0  0  0  0  0
    3.6413   -1.9863   -0.0002 C   0  0  0  0  0  0  0  0  0  0  0  0
    2.3015   -1.7942   -0.0007 C   0  0  0  0  0  0  0  0  0  0  0  0
    1.7454   -0.5040   -0.0012 C   0  0  0  0  0  0  0  0  0  0  0  0
    0.2918   -0.3047   -0.0016 C   0  0  0  0  0  0  0  0  0  0  0  0
   -0.5787   -1.3876   -0.0014 C   0  0  0  0  0  0  0  0  0  0  0  0
   -1.9564   -1.1698   -0.0012 C   0  0  0  0  0  0  0  0  0  0  0  0
   -2.4634    0.1554   -0.0012 C   0  0  0  0  0  0  0  0  0  0  0  0
   -1.5947    1.2376   -0.0015 C   0  0  0  0  0  0  0  0  0  0  0  0
   -0.2142    1.0218   -0.0017 C   0  0  0  0  0  0  0  0  0  0  0  0
    0.6843    2.1131   -0.0018 C   0  0  0  0  0  0  0  0  0  0  0  0
    2.0221    1.9202   -0.0017 C   0  0  0  0  0  0  0  0  0  0  0  0
    2.5799    0.6284   -0.0008 C   0  0  0  0  0  0  0  0  0  0  0  0
    4.0299    0.4275    0.0003 C   0  0  0  0  0  0  0  0  0  0  0  0
    4.9172    1.5072    0.0007 C   0  0  0  0  0  0  0  0  0  0  0  0
    6.2625    1.2763    0.0021 C   0  0  0  0  0  0  0  0  0  0  0  0
    6.7625   -0.0215    0.0024 C   0  0  0  0  0  0  0  0  0  0  0  0
   -3.9184    0.3619   -0.0003 C   0  0  0  0  0  0  0  0  0  0  0  0
   -4.4640    1.6470    0.0002 C   0  0  0  0  0  0  0  0  0  0  0  0
   -5.8210    1.8077    0.0015 C   0  0  0  0  0  0  0  0  0  0  0  0
   -6.6666    0.7057    0.0027 C   0  0  0  0  0  0  0  0  0  0  0  0
   -6.1623   -0.5626    0.0026 C   0  0  0  0  0  0  0  0  0  0  0  0
   -4.7747   -0.7596    0.0004 C   0  0  0  0  0  0  0  0  0  0  0  0
   -4.2136   -2.1069   -0.0002 C   0  0  0  0  0  0  0  0  0  0  0  0
   -2.8797   -2.3014   -0.0005 C   0  0  0  0  0  0  0  0  0  0  0  0
    6.3259   -2.0982    0.0061 H   0  0  0  0  0  0  0  0  0  0  0  0
    4.0331   -2.9927   -0.0005 H   0  0  0  0  0  0  0  0  0  0  0  0
    1.6452   -2.6519   -0.0011 H   0  0  0  0  0  0  0  0  0  0  0  0
   -0.1898   -2.3951   -0.0018 H   0  0  0  0  0  0  0  0  0  0  0  0
   -1.9849    2.2447   -0.0019 H   0  0  0  0  0  0  0  0  0  0  0  0
    0.2944    3.1202   -0.0024 H   0  0  0  0  0  0  0  0  0  0  0  0
    2.6784    2.7779   -0.0021 H   0  0  0  0  0  0  0  0  0  0  0  0
    4.5403    2.5193   -0.0005 H   0  0  0  0  0  0  0  0  0  0  0  0
    6.9470    2.1116    0.0024 H   0  0  0  0  0  0  0  0  0  0  0  0
    7.8307   -0.1804    0.0039 H   0  0  0  0  0  0  0  0  0  0  0  0
   -3.8160    2.5109    0.0000 H   0  0  0  0  0  0  0  0  0  0  0  0
   -6.2408    2.8028    0.0019 H   0  0  0  0  0  0  0  0  0  0  0  0
   -7.7364    0.8542    0.0041 H   0  0  0  0  0  0  0  0  0  0  0  0
   -6.8301   -1.4114    0.0036 H   0  0  0  0  0  0  0  0  0  0  0  0
   -4.8762   -2.9597    0.0013 H   0  0  0  0  0  0  0  0  0  0  0  0
   -2.4884   -3.3080   -0.0010 H   0  0  0  0  0  0  0  0  0  0  0  0
  1  2  2  0  0  0  0
  2  3  1  0  0  0  0
  3  4  2  0  0  0  0
  4  5  1  0  0  0  0
  5  6  2  0  0  0  0
  6  7  1  0  0  0  0
  7  8  2  0  0  0  0
  8  9  1  0  0  0  0
  9 10  2  0  0  0  0
 10 11  1  0  0  0  0
  6 11  1  0  0  0  0
 11 12  2  0  0  0  0
 12 13  1  0  0  0  0
 13 14  2  0  0  0  0
  5 14  1  0  0  0  0
 14 15  1  0  0  0  0
  2 15  1  0  0  0  0
 15 16  2  0  0  0  0
 16 17  1  0  0  0  0
 17 18  2  0  0  0  0
  1 18  1  0  0  0  0
  9 19  1  0  0  0  0
 19 20  1  0  0  0  0
 20 21  2  0  0  0  0
 21 22  1  0  0  0  0
 22 23  2  0  0  0  0
 23 24  1  0  0  0  0
 19 24  2  0  0  0  0
 24 25  1  0  0  0  0
 25 26  2  0  0  0  0
  8 26  1  0  0  0  0
  1 27  1  0  0  0  0
  3 28  1  0  0  0  0
  4 29  1  0  0  0  0
  7 30  1  0  0  0  0
 10 31  1  0  0  0  0
 12 32  1  0  0  0  0
 13 33  1  0  0  0  0
 16 34  1  0  0  0  0
 17 35  1  0  0  0  0
 18 36  1  0  0  0  0
 20 37  1  0  0  0  0
 21 38  1  0  0  0  0
 22 39  1  0  0  0  0
 23 40  1  0  0  0  0
 25 41  1  0  0  0  0
 26 42  1  0  0  0  0
M  END
$$$$
