C28H16
APtclcactv01171906283D 0   0.00000     0.00000
 
 44 50  0  0  0  0  0  0  0  0999 V2000
    5.4117   -2.0623   -0.0008 C   0  0  0  0  0  0  0  0  0  0  0  0
    4.0869   -1.6047   -0.0004 C   0  0  0  0  0  0  0  0  0  0  0  0
    2.9976   -2.5021    0.0005 C   0  0  0  0  0  0  0  0  0  0  0  0
    1.7205   -2.0398    0.0012 C   0  0  0  0  0  0  0  0  0  0  0  0
    1.4539   -0.6602    0.0012 C   0  0  0  0  0  0  0  0  0  0  0  0
    0.0792   -0.1454    0.0015 C   0  0  0  0  0  0  0  0  0  0  0  0
   -0.9988   -1.0131    0.0018 C   0  0  0  0  0  0  0  0  0  0  0  0
   -2.3075   -0.5055    0.0015 C   0  0  0  0  0  0  0  0  0  0  0  0
   -3.4006   -1.3790    0.0010 C   0  0  0  0  0  0  0  0  0  0  0  0
   -4.6939   -0.8672    0.0003 C   0  0  0  0  0  0  0  0  0  0  0  0
   -5.8168   -1.7240   -0.0008 C   0  0  0  0  0  0  0  0  0  0  0  0
   -7.0651   -1.1921   -0.0019 C   0  0  0  0  0  0  0  0  0  0  0  0
   -7.2757    0.1881   -0.0025 C   0  0  0  0  0  0  0  0  0  0  0  0
   -6.2427    1.0677   -0.0020 C   0  0  0  0  0  0  0  0  0  0  0  0
   -4.9152    0.5840    0.0001 C   0  0  0  0  0  0  0  0  0  0  0  0
   -3.8336    1.4572    0.0011 C   0  0  0  0  0  0  0  0  0  0  0  0
   -2.5283    0.9471    0.0012 C   0  0  0  0  0  0  0  0  0  0  0  0
   -1.4331    1.8195    0.0015 C   0  0  0  0  0  0  0  0  0  0  0  0
   -0.1356    1.3078    0.0011 C   0  0  0  0  0  0  0  0  0  0  0  0
    0.9661    2.1857    0.0011 C   0  0  0  0  0  0  0  0  0  0  0  0
    2.2617    1.7024    0.0002 C   0  0  0  0  0  0  0  0  0  0  0  0
    3.4029    2.6203   -0.0000 C   0  0  0  0  0  0  0  0  0  0  0  0
    4.6637    2.1386   -0.0011 C   0  0  0  0  0  0  0  0  0  0  0  0
    4.9209    0.7004   -0.0015 C   0  0  0  0  0  0  0  0  0  0  0  0
    3.8419   -0.2119   -0.0005 C   0  0  0  0  0  0  0  0  0  0  0  0
    2.5157    0.2591    0.0003 C   0  0  0  0  0  0  0  0  0  0  0  0
    6.2257    0.2046   -0.0021 C   0  0  0  0  0  0  0  0  0  0  0  0
    6.4538   -1.1605   -0.0012 C   0  0  0  0  0  0  0  0  0  0  0  0
    5.6161   -3.1228    0.0038 H   0  0  0  0  0  0  0  0  0  0  0  0
    3.1813   -3.5663    0.0002 H   0  0  0  0  0  0  0  0  0  0  0  0
    0.8995   -2.7415    0.0016 H   0  0  0  0  0  0  0  0  0  0  0  0
   -0.8333   -2.0803    0.0019 H   0  0  0  0  0  0  0  0  0  0  0  0
   -3.2406   -2.4471    0.0009 H   0  0  0  0  0  0  0  0  0  0  0  0
   -5.6827   -2.7956   -0.0010 H   0  0  0  0  0  0  0  0  0  0  0  0
   -7.9185   -1.8540   -0.0028 H   0  0  0  0  0  0  0  0  0  0  0  0
   -8.2876    0.5655   -0.0038 H   0  0  0  0  0  0  0  0  0  0  0  0
   -6.4339    2.1306   -0.0032 H   0  0  0  0  0  0  0  0  0  0  0  0
   -3.9985    2.5246   -0.0008 H   0  0  0  0  0  0  0  0  0  0  0  0
   -1.5929    2.8876    0.0017 H   0  0  0  0  0  0  0  0  0  0  0  0
    0.7963    3.2522    0.0015 H   0  0  0  0  0  0  0  0  0  0  0  0
    3.2349    3.6872    0.0003 H   0  0  0  0  0  0  0  0  0  0  0  0
    5.4957    2.8272   -0.0020 H   0  0  0  0  0  0  0  0  0  0  0  0
    7.0610    0.8893   -0.0026 H   0  0  0  0  0  0  0  0  0  0  0  0
    7.4699   -1.5267   -0.0016 H   0  0  0  0  0  0  0  0  0  0  0  0
  1  2  2  0  0  0  0
  2  3  1  0  0  0  0
  3  4  2  0  0  0  0
  4  5  1  0  0  0  0
  5  6  2  0  0  0  0
  6  7  1  0  0  0  0
  7  8  2  0  0  0  0
  8  9  1  0  0  0  0
  9 10  2  0  0  0  0
 10 11  1  0  0  0  0
 11 12  2  0  0  0  0
 12 13  1  0  0  0  0
 13 14  2  0  0  0  0
 14 15  1  0  0  0  0
 10 15  1  0  0  0  0
 15 16  2  0  0  0  0
 16 17  1  0  0  0  0
  8 17  1  0  0  0  0
 17 18  2  0  0  0  0
 18 19  1  0  0  0  0
  6 19  1  0  0  0  0
 19 20  2  0  0  0  0
 20 21  1  0  0  0  0
 21 22  2  0  0  0  0
 22 23  1  0  0  0  0
 23 24  2  0  0  0  0
 24 25  1  0  0  0  0
  2 25  1  0  0  0  0
 25 26  2  0  0  0  0
  5 26  1  0  0  0  0
 21 26  1  0  0  0  0
 24 27  1  0  0  0  0
 27 28  2  0  0  0  0
  1 28  1  0  0  0  0
  1 29  1  0  0  0  0
  3 30  1  0  0  0  0
  4 31  1  0  0  0  0
  7 32  1  0  0  0  0
  9 33  1  0  0  0  0
 11 34  1  0  0  0  0
 12 35  1  0  0  0  0
 13 36  1  0  0  0  0
 14 37  1  0  0  0  0
 16 38  1  0  0  0  0
 18 39  1  0  0  0  0
 20 40  1  0  0  0  0
 22 41  1  0  0  0  0
 23 42  1  0  0  0  0
 27 43  1  0  0  0  0
 28 44  1  0  0  0  0
M  END
$$$$
