C20H12
APtclcactv01171906293D 0   0.00000     0.00000
 
 32 36  0  0  0  0  0  0  0  0999 V2000
   -1.5495   -2.4233   -0.0009 C   0  0  0  0  0  0  0  0  0  0  0  0
   -2.8741   -2.8054   -0.0025 C   0  0  0  0  0  0  0  0  0  0  0  0
   -3.8804   -1.8521   -0.0028 C   0  0  0  0  0  0  0  0  0  0  0  0
   -3.5698   -0.5082   -0.0013 C   0  0  0  0  0  0  0  0  0  0  0  0
   -2.2406   -0.0971    0.0004 C   0  0  0  0  0  0  0  0  0  0  0  0
   -1.5995    1.2308    0.0010 C   0  0  0  0  0  0  0  0  0  0  0  0
   -2.0065    2.5516    0.0016 C   0  0  0  0  0  0  0  0  0  0  0  0
   -1.0672    3.5826    0.0017 C   0  0  0  0  0  0  0  0  0  0  0  0
    0.2823    3.3775    0.0006 C   0  0  0  0  0  0  0  0  0  0  0  0
    0.7699    2.0533    0.0000 C   0  0  0  0  0  0  0  0  0  0  0  0
   -0.2156    0.9932    0.0010 C   0  0  0  0  0  0  0  0  0  0  0  0
    0.0802   -0.3639    0.0016 C   0  0  0  0  0  0  0  0  0  0  0  0
   -1.2105   -1.0717    0.0009 C   0  0  0  0  0  0  0  0  0  0  0  0
    1.4427   -0.7144    0.0016 C   0  0  0  0  0  0  0  0  0  0  0  0
    1.8526   -2.0581    0.0059 C   0  0  0  0  0  0  0  0  0  0  0  0
    3.1789   -2.3580    0.0038 C   0  0  0  0  0  0  0  0  0  0  0  0
    4.1520   -1.3599   -0.0020 C   0  0  0  0  0  0  0  0  0  0  0  0
    3.8235   -0.0429   -0.0052 C   0  0  0  0  0  0  0  0  0  0  0  0
    2.4638    0.3407   -0.0026 C   0  0  0  0  0  0  0  0  0  0  0  0
    2.1192    1.6997   -0.0028 C   0  0  0  0  0  0  0  0  0  0  0  0
   -0.7726   -3.1734    0.0035 H   0  0  0  0  0  0  0  0  0  0  0  0
   -3.1295   -3.8548   -0.0040 H   0  0  0  0  0  0  0  0  0  0  0  0
   -4.9145   -2.1637   -0.0047 H   0  0  0  0  0  0  0  0  0  0  0  0
   -4.3608    0.2272   -0.0017 H   0  0  0  0  0  0  0  0  0  0  0  0
   -3.0605    2.7873    0.0017 H   0  0  0  0  0  0  0  0  0  0  0  0
   -1.4280    4.6005    0.0023 H   0  0  0  0  0  0  0  0  0  0  0  0
    0.9651    4.2143   -0.0001 H   0  0  0  0  0  0  0  0  0  0  0  0
    1.1176   -2.8494    0.0113 H   0  0  0  0  0  0  0  0  0  0  0  0
    3.4855   -3.3936    0.0070 H   0  0  0  0  0  0  0  0  0  0  0  0
    5.1945   -1.6418   -0.0035 H   0  0  0  0  0  0  0  0  0  0  0  0
    4.5987    0.7091   -0.0095 H   0  0  0  0  0  0  0  0  0  0  0  0
    2.8860    2.4603   -0.0046 H   0  0  0  0  0  0  0  0  0  0  0  0
  1  2  2  0  0  0  0
  2  3  1  0  0  0  0
  3  4  2  0  0  0  0
  4  5  1  0  0  0  0
  5  6  1  0  0  0  0
  6  7  2  0  0  0  0
  7  8  1  0  0  0  0
  8  9  2  0  0  0  0
  9 10  1  0  0  0  0
 10 11  2  0  0  0  0
  6 11  1  0  0  0  0
 11 12  1  0  0  0  0
 12 13  1  0  0  0  0
  1 13  1  0  0  0  0
  5 13  2  0  0  0  0
 12 14  2  0  0  0  0
 14 15  1  0  0  0  0
 15 16  2  0  0  0  0
 16 17  1  0  0  0  0
 17 18  2  0  0  0  0
 18 19  1  0  0  0  0
 14 19  1  0  0  0  0
 19 20  2  0  0  0  0
 10 20  1  0  0  0  0
  1 21  1  0  0  0  0
  2 22  1  0  0  0  0
  3 23  1  0  0  0  0
  4 24  1  0  0  0  0
  7 25  1  0  0  0  0
  8 26  1  0  0  0  0
  9 27  1  0  0  0  0
 15 28  1  0  0  0  0
 16 29  1  0  0  0  0
 17 30  1  0  0  0  0
 18 31  1  0  0  0  0
 20 32  1  0  0  0  0
M  END
$$$$
