C24H14
APtclcactv01171906293D 0   0.00000     0.00000
 
 38 43  0  0  0  0  0  0  0  0999 V2000
   -5.1494    0.2670    0.0003 C   0  0  0  0  0  0  0  0  0  0  0  0
   -5.0885   -1.1001   -0.0014 C   0  0  0  0  0  0  0  0  0  0  0  0
   -3.8871   -1.8070   -0.0017 C   0  0  0  0  0  0  0  0  0  0  0  0
   -2.6841   -1.1197   -0.0010 C   0  0  0  0  0  0  0  0  0  0  0  0
   -1.2471   -1.4595   -0.0010 C   0  0  0  0  0  0  0  0  0  0  0  0
   -0.5720   -2.6908    0.0001 C   0  0  0  0  0  0  0  0  0  0  0  0
    0.7763   -2.7860    0.0009 C   0  0  0  0  0  0  0  0  0  0  0  0
    1.5847   -1.6273   -0.0000 C   0  0  0  0  0  0  0  0  0  0  0  0
    0.9369   -0.3116   -0.0031 C   0  0  0  0  0  0  0  0  0  0  0  0
   -0.5236   -0.2536   -0.0018 C   0  0  0  0  0  0  0  0  0  0  0  0
   -1.4831    0.8602    0.0001 C   0  0  0  0  0  0  0  0  0  0  0  0
   -1.4328    2.2468    0.0022 C   0  0  0  0  0  0  0  0  0  0  0  0
   -2.6154    2.9827    0.0041 C   0  0  0  0  0  0  0  0  0  0  0  0
   -3.8557    2.4029    0.0037 C   0  0  0  0  0  0  0  0  0  0  0  0
   -3.9506    1.0010    0.0013 C   0  0  0  0  0  0  0  0  0  0  0  0
   -2.7559    0.2770   -0.0001 C   0  0  0  0  0  0  0  0  0  0  0  0
    1.7030    0.8483   -0.0060 C   0  0  0  0  0  0  0  0  0  0  0  0
    3.0950    0.7545   -0.0037 C   0  0  0  0  0  0  0  0  0  0  0  0
    3.9036    1.9106   -0.0062 C   0  0  0  0  0  0  0  0  0  0  0  0
    5.2555    1.7825   -0.0017 C   0  0  0  0  0  0  0  0  0  0  0  0
    5.8736    0.5320    0.0042 C   0  0  0  0  0  0  0  0  0  0  0  0
    5.1543   -0.6197    0.0053 C   0  0  0  0  0  0  0  0  0  0  0  0
    3.7445   -0.5600    0.0020 C   0  0  0  0  0  0  0  0  0  0  0  0
    2.9743   -1.7226    0.0029 C   0  0  0  0  0  0  0  0  0  0  0  0
   -6.1031    0.7738   -0.0035 H   0  0  0  0  0  0  0  0  0  0  0  0
   -6.0138   -1.6570   -0.0023 H   0  0  0  0  0  0  0  0  0  0  0  0
   -3.8940   -2.8870   -0.0021 H   0  0  0  0  0  0  0  0  0  0  0  0
   -1.1547   -3.6001    0.0007 H   0  0  0  0  0  0  0  0  0  0  0  0
    1.2418   -3.7605    0.0026 H   0  0  0  0  0  0  0  0  0  0  0  0
   -0.4794    2.7540    0.0027 H   0  0  0  0  0  0  0  0  0  0  0  0
   -2.5510    4.0607    0.0064 H   0  0  0  0  0  0  0  0  0  0  0  0
   -4.7467    3.0133    0.0050 H   0  0  0  0  0  0  0  0  0  0  0  0
    1.2236    1.8161   -0.0104 H   0  0  0  0  0  0  0  0  0  0  0  0
    3.4505    2.8909   -0.0121 H   0  0  0  0  0  0  0  0  0  0  0  0
    5.8680    2.6720   -0.0030 H   0  0  0  0  0  0  0  0  0  0  0  0
    6.9522    0.4785    0.0076 H   0  0  0  0  0  0  0  0  0  0  0  0
    5.6579   -1.5751    0.0090 H   0  0  0  0  0  0  0  0  0  0  0  0
    3.4524   -2.6909    0.0057 H   0  0  0  0  0  0  0  0  0  0  0  0
  1  2  2  0  0  0  0
  2  3  1  0  0  0  0
  3  4  2  0  0  0  0
  4  5  1  0  0  0  0
  5  6  1  0  0  0  0
  6  7  2  0  0  0  0
  7  8  1  0  0  0  0
  8  9  2  0  0  0  0
  9 10  1  0  0  0  0
  5 10  2  0  0  0  0
 10 11  1  0  0  0  0
 11 12  1  0  0  0  0
 12 13  2  0  0  0  0
 13 14  1  0  0  0  0
 14 15  2  0  0  0  0
  1 15  1  0  0  0  0
 15 16  1  0  0  0  0
  4 16  1  0  0  0  0
 11 16  2  0  0  0  0
  9 17  1  0  0  0  0
 17 18  2  0  0  0  0
 18 19  1  0  0  0  0
 19 20  2  0  0  0  0
 20 21  1  0  0  0  0
 21 22  2  0  0  0  0
 22 23  1  0  0  0  0
 18 23  1  0  0  0  0
 23 24  2  0  0  0  0
  8 24  1  0  0  0  0
  1 25  1  0  0  0  0
  2 26  1  0  0  0  0
  3 27  1  0  0  0  0
  6 28  1  0  0  0  0
  7 29  1  0  0  0  0
 12 30  1  0  0  0  0
 13 31  1  0  0  0  0
 14 32  1  0  0  0  0
 17 33  1  0  0  0  0
 19 34  1  0  0  0  0
 20 35  1  0  0  0  0
 21 36  1  0  0  0  0
 22 37  1  0  0  0  0
 24 38  1  0  0  0  0
M  END
$$$$
