C30H14
APtclcactv01171906293D 0   0.00000     0.00000
 
 44 52  0  0  0  0  0  0  0  0999 V2000
    1.5803   -3.6704   -0.0004 C   0  0  0  0  0  0  0  0  0  0  0  0
    0.4923   -2.7662    0.0003 C   0  0  0  0  0  0  0  0  0  0  0  0
   -0.8333   -3.2091   -0.0002 C   0  0  0  0  0  0  0  0  0  0  0  0
   -1.8907   -2.2989    0.0000 C   0  0  0  0  0  0  0  0  0  0  0  0
   -1.6318   -0.9042    0.0009 C   0  0  0  0  0  0  0  0  0  0  0  0
   -2.6915    0.0285    0.0003 C   0  0  0  0  0  0  0  0  0  0  0  0
   -2.4398    1.4206    0.0005 C   0  0  0  0  0  0  0  0  0  0  0  0
   -1.0560    1.9159    0.0013 C   0  0  0  0  0  0  0  0  0  0  0  0
   -0.7455    3.2815    0.0013 C   0  0  0  0  0  0  0  0  0  0  0  0
    0.5499    3.7093    0.0008 C   0  0  0  0  0  0  0  0  0  0  0  0
    1.6169    2.7948    0.0003 C   0  0  0  0  0  0  0  0  0  0  0  0
    2.9654    3.2092   -0.0014 C   0  0  0  0  0  0  0  0  0  0  0  0
    3.9753    2.3022   -0.0022 C   0  0  0  0  0  0  0  0  0  0  0  0
    3.7162    0.9157   -0.0013 C   0  0  0  0  0  0  0  0  0  0  0  0
    4.7521   -0.0366   -0.0016 C   0  0  0  0  0  0  0  0  0  0  0  0
    4.4810   -1.3693   -0.0002 C   0  0  0  0  0  0  0  0  0  0  0  0
    3.1567   -1.8443    0.0016 C   0  0  0  0  0  0  0  0  0  0  0  0
    2.8599   -3.2247   -0.0006 C   0  0  0  0  0  0  0  0  0  0  0  0
    2.0953   -0.9137    0.0018 C   0  0  0  0  0  0  0  0  0  0  0  0
    0.7611   -1.3754    0.0010 C   0  0  0  0  0  0  0  0  0  0  0  0
   -0.3004   -0.4528    0.0018 C   0  0  0  0  0  0  0  0  0  0  0  0
   -0.0093    0.9775    0.0016 C   0  0  0  0  0  0  0  0  0  0  0  0
    1.3298    1.4122    0.0011 C   0  0  0  0  0  0  0  0  0  0  0  0
    2.3769    0.4681    0.0004 C   0  0  0  0  0  0  0  0  0  0  0  0
   -3.5132    2.3097   -0.0006 C   0  0  0  0  0  0  0  0  0  0  0  0
   -4.8117    1.8374   -0.0014 C   0  0  0  0  0  0  0  0  0  0  0  0
   -5.0762    0.4829   -0.0011 C   0  0  0  0  0  0  0  0  0  0  0  0
   -4.0265   -0.4397   -0.0009 C   0  0  0  0  0  0  0  0  0  0  0  0
   -4.2928   -1.8754   -0.0009 C   0  0  0  0  0  0  0  0  0  0  0  0
   -3.2763   -2.7654   -0.0011 C   0  0  0  0  0  0  0  0  0  0  0  0
    1.3879   -4.7331    0.0038 H   0  0  0  0  0  0  0  0  0  0  0  0
   -1.0417   -4.2688   -0.0011 H   0  0  0  0  0  0  0  0  0  0  0  0
   -1.5447    4.0079    0.0014 H   0  0  0  0  0  0  0  0  0  0  0  0
    0.7589    4.7689    0.0005 H   0  0  0  0  0  0  0  0  0  0  0  0
    3.1978    4.2639   -0.0024 H   0  0  0  0  0  0  0  0  0  0  0  0
    4.9980    2.6492   -0.0039 H   0  0  0  0  0  0  0  0  0  0  0  0
    5.7795    0.2963   -0.0034 H   0  0  0  0  0  0  0  0  0  0  0  0
    5.2975   -2.0762   -0.0007 H   0  0  0  0  0  0  0  0  0  0  0  0
    3.6692   -3.9398   -0.0040 H   0  0  0  0  0  0  0  0  0  0  0  0
   -3.3289    3.3739   -0.0004 H   0  0  0  0  0  0  0  0  0  0  0  0
   -5.6326    2.5392   -0.0019 H   0  0  0  0  0  0  0  0  0  0  0  0
   -6.0985    0.1345   -0.0013 H   0  0  0  0  0  0  0  0  0  0  0  0
   -5.3131   -2.2296   -0.0003 H   0  0  0  0  0  0  0  0  0  0  0  0
   -3.4879   -3.8244   -0.0012 H   0  0  0  0  0  0  0  0  0  0  0  0
  1  2  2  0  0  0  0
  2  3  1  0  0  0  0
  3  4  2  0  0  0  0
  4  5  1  0  0  0  0
  5  6  2  0  0  0  0
  6  7  1  0  0  0  0
  7  8  2  0  0  0  0
  8  9  1  0  0  0  0
  9 10  2  0  0  0  0
 10 11  1  0  0  0  0
 11 12  2  0  0  0  0
 12 13  1  0  0  0  0
 13 14  2  0  0  0  0
 14 15  1  0  0  0  0
 15 16  2  0  0  0  0
 16 17  1  0  0  0  0
 17 18  2  0  0  0  0
  1 18  1  0  0  0  0
 17 19  1  0  0  0  0
 19 20  1  0  0  0  0
  2 20  1  0  0  0  0
 20 21  2  0  0  0  0
  5 21  1  0  0  0  0
 21 22  1  0  0  0  0
  8 22  1  0  0  0  0
 22 23  2  0  0  0  0
 11 23  1  0  0  0  0
 23 24  1  0  0  0  0
 19 24  2  0  0  0  0
 14 24  1  0  0  0  0
  7 25  1  0  0  0  0
 25 26  2  0  0  0  0
 26 27  1  0  0  0  0
 27 28  2  0  0  0  0
  6 28  1  0  0  0  0
 28 29  1  0  0  0  0
 29 30  2  0  0  0  0
  4 30  1  0  0  0  0
  1 31  1  0  0  0  0
  3 32  1  0  0  0  0
  9 33  1  0  0  0  0
 10 34  1  0  0  0  0
 12 35  1  0  0  0  0
 13 36  1  0  0  0  0
 15 37  1  0  0  0  0
 16 38  1  0  0  0  0
 18 39  1  0  0  0  0
 25 40  1  0  0  0  0
 26 41  1  0  0  0  0
 27 42  1  0  0  0  0
 29 43  1  0  0  0  0
 30 44  1  0  0  0  0
M  END
$$$$
