C22H14
APtclcactv01171906283D 0   0.00000     0.00000
 
 36 40  0  0  0  0  0  0  0  0999 V2000
    4.7628   -1.3917    0.0005 C   0  0  0  0  0  0  0  0  0  0  0  0
    3.3973   -1.0668    0.0001 C   0  0  0  0  0  0  0  0  0  0  0  0
    2.4095   -2.0737   -0.0008 C   0  0  0  0  0  0  0  0  0  0  0  0
    1.0923   -1.7603   -0.0015 C   0  0  0  0  0  0  0  0  0  0  0  0
    0.6554   -0.4257   -0.0018 C   0  0  0  0  0  0  0  0  0  0  0  0
    1.5870    0.6271   -0.0013 C   0  0  0  0  0  0  0  0  0  0  0  0
    1.1583    1.9682   -0.0012 C   0  0  0  0  0  0  0  0  0  0  0  0
   -0.1473    2.3081   -0.0012 C   0  0  0  0  0  0  0  0  0  0  0  0
   -1.1603    1.3183   -0.0013 C   0  0  0  0  0  0  0  0  0  0  0  0
   -2.5054    1.6757   -0.0001 C   0  0  0  0  0  0  0  0  0  0  0  0
   -3.4834    0.6802    0.0005 C   0  0  0  0  0  0  0  0  0  0  0  0
   -4.8557    1.0064    0.0013 C   0  0  0  0  0  0  0  0  0  0  0  0
   -5.7807    0.0119    0.0014 C   0  0  0  0  0  0  0  0  0  0  0  0
   -5.4108   -1.3326    0.0013 C   0  0  0  0  0  0  0  0  0  0  0  0
   -4.1070   -1.7143    0.0005 C   0  0  0  0  0  0  0  0  0  0  0  0
   -3.0950   -0.7328   -0.0001 C   0  0  0  0  0  0  0  0  0  0  0  0
   -1.7434   -1.0874   -0.0003 C   0  0  0  0  0  0  0  0  0  0  0  0
   -0.7758   -0.0955   -0.0022 C   0  0  0  0  0  0  0  0  0  0  0  0
    3.0132    0.2948   -0.0000 C   0  0  0  0  0  0  0  0  0  0  0  0
    3.9934    1.2914    0.0012 C   0  0  0  0  0  0  0  0  0  0  0  0
    5.3124    0.9411    0.0030 C   0  0  0  0  0  0  0  0  0  0  0  0
    5.6942   -0.3965    0.0009 C   0  0  0  0  0  0  0  0  0  0  0  0
    5.0741   -2.4258    0.0051 H   0  0  0  0  0  0  0  0  0  0  0  0
    2.7087   -3.1114   -0.0013 H   0  0  0  0  0  0  0  0  0  0  0  0
    0.3609   -2.5550   -0.0021 H   0  0  0  0  0  0  0  0  0  0  0  0
    1.9008    2.7525   -0.0008 H   0  0  0  0  0  0  0  0  0  0  0  0
   -0.4244    3.3519   -0.0008 H   0  0  0  0  0  0  0  0  0  0  0  0
   -2.7906    2.7173    0.0006 H   0  0  0  0  0  0  0  0  0  0  0  0
   -5.1688    2.0401    0.0021 H   0  0  0  0  0  0  0  0  0  0  0  0
   -6.8297    0.2689    0.0021 H   0  0  0  0  0  0  0  0  0  0  0  0
   -6.1806   -2.0900    0.0021 H   0  0  0  0  0  0  0  0  0  0  0  0
   -3.8475   -2.7626    0.0001 H   0  0  0  0  0  0  0  0  0  0  0  0
   -1.4547   -2.1281    0.0002 H   0  0  0  0  0  0  0  0  0  0  0  0
    3.7083    2.3331    0.0005 H   0  0  0  0  0  0  0  0  0  0  0  0
    6.0690    1.7118    0.0036 H   0  0  0  0  0  0  0  0  0  0  0  0
    6.7439   -0.6502    0.0024 H   0  0  0  0  0  0  0  0  0  0  0  0
  1  2  2  0  0  0  0
  2  3  1  0  0  0  0
  3  4  2  0  0  0  0
  4  5  1  0  0  0  0
  5  6  2  0  0  0  0
  6  7  1  0  0  0  0
  7  8  2  0  0  0  0
  8  9  1  0  0  0  0
  9 10  1  0  0  0  0
 10 11  2  0  0  0  0
 11 12  1  0  0  0  0
 12 13  2  0  0  0  0
 13 14  1  0  0  0  0
 14 15  2  0  0  0  0
 15 16  1  0  0  0  0
 11 16  1  0  0  0  0
 16 17  2  0  0  0  0
 17 18  1  0  0  0  0
  5 18  1  0  0  0  0
  9 18  2  0  0  0  0
  6 19  1  0  0  0  0
  2 19  1  0  0  0  0
 19 20  2  0  0  0  0
 20 21  1  0  0  0  0
 21 22  2  0  0  0  0
  1 22  1  0  0  0  0
  1 23  1  0  0  0  0
  3 24  1  0  0  0  0
  4 25  1  0  0  0  0
  7 26  1  0  0  0  0
  8 27  1  0  0  0  0
 10 28  1  0  0  0  0
 12 29  1  0  0  0  0
 13 30  1  0  0  0  0
 14 31  1  0  0  0  0
 15 32  1  0  0  0  0
 17 33  1  0  0  0  0
 20 34  1  0  0  0  0
 21 35  1  0  0  0  0
 22 36  1  0  0  0  0
M  END
$$$$
