C24H14
APtclcactv01171906293D 0   0.00000     0.00000
 
 38 43  0  0  0  0  0  0  0  0999 V2000
    4.5248   -1.6711    0.0000 C   0  0  0  0  0  0  0  0  0  0  0  0
    3.1446   -1.4135    0.0019 C   0  0  0  0  0  0  0  0  0  0  0  0
    2.2109   -2.4685    0.0049 C   0  0  0  0  0  0  0  0  0  0  0  0
    0.8801   -2.2076    0.0052 C   0  0  0  0  0  0  0  0  0  0  0  0
    0.3952   -0.8894    0.0028 C   0  0  0  0  0  0  0  0  0  0  0  0
    1.3003    0.1922    0.0014 C   0  0  0  0  0  0  0  0  0  0  0  0
    0.5174    1.4368    0.0013 C   0  0  0  0  0  0  0  0  0  0  0  0
    0.7716    2.7979    0.0010 C   0  0  0  0  0  0  0  0  0  0  0  0
   -0.2788    3.7138    0.0002 C   0  0  0  0  0  0  0  0  0  0  0  0
   -1.5971    3.3565   -0.0001 C   0  0  0  0  0  0  0  0  0  0  0  0
   -1.9314    1.9856    0.0001 C   0  0  0  0  0  0  0  0  0  0  0  0
   -3.2312    1.4798    0.0009 C   0  0  0  0  0  0  0  0  0  0  0  0
   -3.4179    0.0895    0.0006 C   0  0  0  0  0  0  0  0  0  0  0  0
   -4.7243   -0.4471    0.0021 C   0  0  0  0  0  0  0  0  0  0  0  0
   -4.9000   -1.7936   -0.0007 C   0  0  0  0  0  0  0  0  0  0  0  0
   -3.8196   -2.6733   -0.0050 C   0  0  0  0  0  0  0  0  0  0  0  0
   -2.5359   -2.2228   -0.0052 C   0  0  0  0  0  0  0  0  0  0  0  0
   -2.2831   -0.8420   -0.0019 C   0  0  0  0  0  0  0  0  0  0  0  0
   -0.9687   -0.3364    0.0003 C   0  0  0  0  0  0  0  0  0  0  0  0
   -0.8317    1.0448    0.0005 C   0  0  0  0  0  0  0  0  0  0  0  0
    2.6891   -0.0724    0.0003 C   0  0  0  0  0  0  0  0  0  0  0  0
    3.6251    0.9721   -0.0027 C   0  0  0  0  0  0  0  0  0  0  0  0
    4.9575    0.6859   -0.0052 C   0  0  0  0  0  0  0  0  0  0  0  0
    5.4060   -0.6320   -0.0023 C   0  0  0  0  0  0  0  0  0  0  0  0
    4.8865   -2.6887    0.0049 H   0  0  0  0  0  0  0  0  0  0  0  0
    2.5571   -3.4915    0.0066 H   0  0  0  0  0  0  0  0  0  0  0  0
    0.1794   -3.0294    0.0070 H   0  0  0  0  0  0  0  0  0  0  0  0
    1.7918    3.1525    0.0017 H   0  0  0  0  0  0  0  0  0  0  0  0
   -0.0365    4.7663    0.0002 H   0  0  0  0  0  0  0  0  0  0  0  0
   -2.3705    4.1104   -0.0002 H   0  0  0  0  0  0  0  0  0  0  0  0
   -4.0800    2.1476    0.0022 H   0  0  0  0  0  0  0  0  0  0  0  0
   -5.5805    0.2112    0.0058 H   0  0  0  0  0  0  0  0  0  0  0  0
   -5.9034   -2.1930    0.0009 H   0  0  0  0  0  0  0  0  0  0  0  0
   -4.0054   -3.7371   -0.0080 H   0  0  0  0  0  0  0  0  0  0  0  0
   -1.7149   -2.9244   -0.0087 H   0  0  0  0  0  0  0  0  0  0  0  0
    3.2912    1.9991   -0.0035 H   0  0  0  0  0  0  0  0  0  0  0  0
    5.6754    1.4928   -0.0079 H   0  0  0  0  0  0  0  0  0  0  0  0
    6.4670   -0.8335   -0.0042 H   0  0  0  0  0  0  0  0  0  0  0  0
  1  2  2  0  0  0  0
  2  3  1  0  0  0  0
  3  4  2  0  0  0  0
  4  5  1  0  0  0  0
  5  6  2  0  0  0  0
  6  7  1  0  0  0  0
  7  8  2  0  0  0  0
  8  9  1  0  0  0  0
  9 10  2  0  0  0  0
 10 11  1  0  0  0  0
 11 12  2  0  0  0  0
 12 13  1  0  0  0  0
 13 14  2  0  0  0  0
 14 15  1  0  0  0  0
 15 16  2  0  0  0  0
 16 17  1  0  0  0  0
 17 18  2  0  0  0  0
 13 18  1  0  0  0  0
 18 19  1  0  0  0  0
  5 19  1  0  0  0  0
 19 20  2  0  0  0  0
  7 20  1  0  0  0  0
 11 20  1  0  0  0  0
  6 21  1  0  0  0  0
  2 21  1  0  0  0  0
 21 22  2  0  0  0  0
 22 23  1  0  0  0  0
 23 24  2  0  0  0  0
  1 24  1  0  0  0  0
  1 25  1  0  0  0  0
  3 26  1  0  0  0  0
  4 27  1  0  0  0  0
  8 28  1  0  0  0  0
  9 29  1  0  0  0  0
 10 30  1  0  0  0  0
 12 31  1  0  0  0  0
 14 32  1  0  0  0  0
 15 33  1  0  0  0  0
 16 34  1  0  0  0  0
 17 35  1  0  0  0  0
 22 36  1  0  0  0  0
 23 37  1  0  0  0  0
 24 38  1  0  0  0  0
M  END
$$$$
