C22H14
APtclcactv01171906293D 0   0.00000     0.00000
 
 36 40  0  0  0  0  0  0  0  0999 V2000
    1.5738   -1.8110    0.4300 C   0  0  0  0  0  0  0  0  0  0  0  0
    2.4371   -2.8676    0.3965 C   0  0  0  0  0  0  0  0  0  0  0  0
    3.7744   -2.6864    0.0602 C   0  0  0  0  0  0  0  0  0  0  0  0
    4.2607   -1.4396   -0.1961 C   0  0  0  0  0  0  0  0  0  0  0  0
    3.4078   -0.3294   -0.1125 C   0  0  0  0  0  0  0  0  0  0  0  0
    3.9192    0.9813   -0.2046 C   0  0  0  0  0  0  0  0  0  0  0  0
    3.1006    2.0534   -0.1521 C   0  0  0  0  0  0  0  0  0  0  0  0
    1.7001    1.9074   -0.0535 C   0  0  0  0  0  0  0  0  0  0  0  0
    1.1282    0.6214   -0.0087 C   0  0  0  0  0  0  0  0  0  0  0  0
   -0.3301    0.5041   -0.0431 C   0  0  0  0  0  0  0  0  0  0  0  0
   -0.9805   -0.7040   -0.2364 C   0  0  0  0  0  0  0  0  0  0  0  0
   -2.3742   -0.7719   -0.1594 C   0  0  0  0  0  0  0  0  0  0  0  0
   -3.0548   -1.9973   -0.3116 C   0  0  0  0  0  0  0  0  0  0  0  0
   -4.4097   -2.0272   -0.2161 C   0  0  0  0  0  0  0  0  0  0  0  0
   -5.1532   -0.8725    0.0246 C   0  0  0  0  0  0  0  0  0  0  0  0
   -4.5599    0.3413    0.1690 C   0  0  0  0  0  0  0  0  0  0  0  0
   -3.1571    0.4444    0.0729 C   0  0  0  0  0  0  0  0  0  0  0  0
   -2.5096    1.6754    0.1772 C   0  0  0  0  0  0  0  0  0  0  0  0
   -1.1220    1.7335    0.0999 C   0  0  0  0  0  0  0  0  0  0  0  0
   -0.4570    2.9836    0.1234 C   0  0  0  0  0  0  0  0  0  0  0  0
    0.8835    3.0583    0.0345 C   0  0  0  0  0  0  0  0  0  0  0  0
    2.0176   -0.5290    0.0953 C   0  0  0  0  0  0  0  0  0  0  0  0
    0.5637   -1.9752    0.7742 H   0  0  0  0  0  0  0  0  0  0  0  0
    2.0756   -3.8569    0.6351 H   0  0  0  0  0  0  0  0  0  0  0  0
    4.4318   -3.5402    0.0006 H   0  0  0  0  0  0  0  0  0  0  0  0
    5.2986   -1.3078   -0.4649 H   0  0  0  0  0  0  0  0  0  0  0  0
    4.9829    1.1295   -0.3165 H   0  0  0  0  0  0  0  0  0  0  0  0
    3.5269    3.0454   -0.1825 H   0  0  0  0  0  0  0  0  0  0  0  0
   -0.4301   -1.5936   -0.5032 H   0  0  0  0  0  0  0  0  0  0  0  0
   -2.5030   -2.9060   -0.5012 H   0  0  0  0  0  0  0  0  0  0  0  0
   -4.9241   -2.9700   -0.3292 H   0  0  0  0  0  0  0  0  0  0  0  0
   -6.2282   -0.9445    0.0978 H   0  0  0  0  0  0  0  0  0  0  0  0
   -5.1593    1.2199    0.3562 H   0  0  0  0  0  0  0  0  0  0  0  0
   -3.0830    2.5806    0.3154 H   0  0  0  0  0  0  0  0  0  0  0  0
   -1.0361    3.8906    0.2125 H   0  0  0  0  0  0  0  0  0  0  0  0
    1.3531    4.0311    0.0304 H   0  0  0  0  0  0  0  0  0  0  0  0
  1  2  2  0  0  0  0
  2  3  1  0  0  0  0
  3  4  2  0  0  0  0
  4  5  1  0  0  0  0
  5  6  1  0  0  0  0
  6  7  2  0  0  0  0
  7  8  1  0  0  0  0
  8  9  1  0  0  0  0
  9 10  2  0  0  0  0
 10 11  1  0  0  0  0
 11 12  2  0  0  0  0
 12 13  1  0  0  0  0
 13 14  2  0  0  0  0
 14 15  1  0  0  0  0
 15 16  2  0  0  0  0
 16 17  1  0  0  0  0
 12 17  1  0  0  0  0
 17 18  2  0  0  0  0
 18 19  1  0  0  0  0
 10 19  1  0  0  0  0
 19 20  2  0  0  0  0
 20 21  1  0  0  0  0
  8 21  2  0  0  0  0
  9 22  1  0  0  0  0
  1 22  1  0  0  0  0
  5 22  2  0  0  0  0
  1 23  1  0  0  0  0
  2 24  1  0  0  0  0
  3 25  1  0  0  0  0
  4 26  1  0  0  0  0
  6 27  1  0  0  0  0
  7 28  1  0  0  0  0
 11 29  1  0  0  0  0
 13 30  1  0  0  0  0
 14 31  1  0  0  0  0
 15 32  1  0  0  0  0
 16 33  1  0  0  0  0
 18 34  1  0  0  0  0
 20 35  1  0  0  0  0
 21 36  1  0  0  0  0
M  END
$$$$
