C22H12
APtclcactv01171906293D 0   0.00000     0.00000
 
 34 39  0  0  0  0  0  0  0  0999 V2000
   -0.8998   -2.7768   -0.0031 C   0  0  0  0  0  0  0  0  0  0  0  0
   -2.2412   -3.1541   -0.0021 C   0  0  0  0  0  0  0  0  0  0  0  0
   -3.3186   -2.2846    0.0003 C   0  0  0  0  0  0  0  0  0  0  0  0
   -3.0554   -0.9099    0.0020 C   0  0  0  0  0  0  0  0  0  0  0  0
   -3.9455    0.1841    0.0044 C   0  0  0  0  0  0  0  0  0  0  0  0
   -3.5255    1.4953    0.0040 C   0  0  0  0  0  0  0  0  0  0  0  0
   -2.1571    1.8248    0.0008 C   0  0  0  0  0  0  0  0  0  0  0  0
   -1.3160    0.7209    0.0000 C   0  0  0  0  0  0  0  0  0  0  0  0
   -1.6975   -0.5936    0.0005 C   0  0  0  0  0  0  0  0  0  0  0  0
   -0.5659   -1.4294   -0.0015 C   0  0  0  0  0  0  0  0  0  0  0  0
    0.6067   -0.5381   -0.0015 C   0  0  0  0  0  0  0  0  0  0  0  0
    2.0130   -0.5694   -0.0011 C   0  0  0  0  0  0  0  0  0  0  0  0
    2.7235   -1.7787   -0.0016 C   0  0  0  0  0  0  0  0  0  0  0  0
    4.0838   -1.7640    0.0009 C   0  0  0  0  0  0  0  0  0  0  0  0
    4.7957   -0.5664    0.0038 C   0  0  0  0  0  0  0  0  0  0  0  0
    4.1693    0.6373    0.0039 C   0  0  0  0  0  0  0  0  0  0  0  0
    2.7573    0.6994    0.0002 C   0  0  0  0  0  0  0  0  0  0  0  0
    2.1297    1.9622   -0.0007 C   0  0  0  0  0  0  0  0  0  0  0  0
    0.7414    2.0105   -0.0029 C   0  0  0  0  0  0  0  0  0  0  0  0
   -0.1114    3.1411   -0.0040 C   0  0  0  0  0  0  0  0  0  0  0  0
   -1.4805    3.0615   -0.0021 C   0  0  0  0  0  0  0  0  0  0  0  0
    0.1047    0.7643   -0.0010 C   0  0  0  0  0  0  0  0  0  0  0  0
   -0.1243   -3.5284   -0.0007 H   0  0  0  0  0  0  0  0  0  0  0  0
   -2.4583   -4.2120   -0.0037 H   0  0  0  0  0  0  0  0  0  0  0  0
   -4.3327   -2.6562    0.0005 H   0  0  0  0  0  0  0  0  0  0  0  0
   -5.0068   -0.0162    0.0064 H   0  0  0  0  0  0  0  0  0  0  0  0
   -4.2606    2.2866    0.0056 H   0  0  0  0  0  0  0  0  0  0  0  0
    2.1922   -2.7189   -0.0034 H   0  0  0  0  0  0  0  0  0  0  0  0
    4.6228   -2.6999    0.0008 H   0  0  0  0  0  0  0  0  0  0  0  0
    5.8753   -0.5969    0.0065 H   0  0  0  0  0  0  0  0  0  0  0  0
    4.7498    1.5481    0.0064 H   0  0  0  0  0  0  0  0  0  0  0  0
    2.7145    2.8702    0.0006 H   0  0  0  0  0  0  0  0  0  0  0  0
    0.3421    4.1213   -0.0055 H   0  0  0  0  0  0  0  0  0  0  0  0
   -2.0580    3.9742   -0.0030 H   0  0  0  0  0  0  0  0  0  0  0  0
  1  2  2  0  0  0  0
  2  3  1  0  0  0  0
  3  4  2  0  0  0  0
  4  5  1  0  0  0  0
  5  6  2  0  0  0  0
  6  7  1  0  0  0  0
  7  8  1  0  0  0  0
  8  9  1  0  0  0  0
  4  9  1  0  0  0  0
  9 10  2  0  0  0  0
  1 10  1  0  0  0  0
 10 11  1  0  0  0  0
 11 12  2  0  0  0  0
 12 13  1  0  0  0  0
 13 14  2  0  0  0  0
 14 15  1  0  0  0  0
 15 16  2  0  0  0  0
 16 17  1  0  0  0  0
 12 17  1  0  0  0  0
 17 18  2  0  0  0  0
 18 19  1  0  0  0  0
 19 20  2  0  0  0  0
 20 21  1  0  0  0  0
  7 21  2  0  0  0  0
 19 22  1  0  0  0  0
 11 22  1  0  0  0  0
  8 22  2  0  0  0  0
  1 23  1  0  0  0  0
  2 24  1  0  0  0  0
  3 25  1  0  0  0  0
  5 26  1  0  0  0  0
  6 27  1  0  0  0  0
 13 28  1  0  0  0  0
 14 29  1  0  0  0  0
 15 30  1  0  0  0  0
 16 31  1  0  0  0  0
 18 32  1  0  0  0  0
 20 33  1  0  0  0  0
 21 34  1  0  0  0  0
M  END
$$$$
