C24H14
APtclcactv01171906293D 0   0.00000     0.00000
 
 38 43  0  0  0  0  0  0  0  0999 V2000
   -2.5230   -1.9722    0.0136 C   0  0  0  0  0  0  0  0  0  0  0  0
   -3.7069   -2.6459    0.0095 C   0  0  0  0  0  0  0  0  0  0  0  0
   -4.9199   -1.9616   -0.0052 C   0  0  0  0  0  0  0  0  0  0  0  0
   -4.9550   -0.6002   -0.0138 C   0  0  0  0  0  0  0  0  0  0  0  0
   -3.7533    0.1273   -0.0072 C   0  0  0  0  0  0  0  0  0  0  0  0
   -3.7573    1.5349   -0.0109 C   0  0  0  0  0  0  0  0  0  0  0  0
   -2.5889    2.2243   -0.0056 C   0  0  0  0  0  0  0  0  0  0  0  0
   -1.3494    1.5641    0.0004 C   0  0  0  0  0  0  0  0  0  0  0  0
    0.0343    2.0797    0.0035 C   0  0  0  0  0  0  0  0  0  0  0  0
    0.6526    3.3239    0.0060 C   0  0  0  0  0  0  0  0  0  0  0  0
    2.0406    3.4028    0.0062 C   0  0  0  0  0  0  0  0  0  0  0  0
    2.8563    2.2853    0.0037 C   0  0  0  0  0  0  0  0  0  0  0  0
    2.2626    1.0220    0.0024 C   0  0  0  0  0  0  0  0  0  0  0  0
    2.9734   -0.2590   -0.0019 C   0  0  0  0  0  0  0  0  0  0  0  0
    4.3666   -0.3184   -0.0121 C   0  0  0  0  0  0  0  0  0  0  0  0
    4.9970   -1.5303   -0.0149 C   0  0  0  0  0  0  0  0  0  0  0  0
    4.2618   -2.7100   -0.0058 C   0  0  0  0  0  0  0  0  0  0  0  0
    2.8998   -2.6867    0.0043 C   0  0  0  0  0  0  0  0  0  0  0  0
    2.2153   -1.4577    0.0042 C   0  0  0  0  0  0  0  0  0  0  0  0
    0.7990   -1.4512    0.0087 C   0  0  0  0  0  0  0  0  0  0  0  0
    0.1043   -0.2650    0.0050 C   0  0  0  0  0  0  0  0  0  0  0  0
   -1.3078    0.1578    0.0040 C   0  0  0  0  0  0  0  0  0  0  0  0
   -2.5206   -0.5692    0.0034 C   0  0  0  0  0  0  0  0  0  0  0  0
    0.8730    0.9669    0.0043 C   0  0  0  0  0  0  0  0  0  0  0  0
   -1.5899   -2.5158    0.0292 H   0  0  0  0  0  0  0  0  0  0  0  0
   -3.7050   -3.7259    0.0173 H   0  0  0  0  0  0  0  0  0  0  0  0
   -5.8454   -2.5182   -0.0101 H   0  0  0  0  0  0  0  0  0  0  0  0
   -5.9026   -0.0822   -0.0261 H   0  0  0  0  0  0  0  0  0  0  0  0
   -4.6959    2.0691   -0.0183 H   0  0  0  0  0  0  0  0  0  0  0  0
   -2.6125    3.3040   -0.0063 H   0  0  0  0  0  0  0  0  0  0  0  0
    0.0578    4.2254    0.0074 H   0  0  0  0  0  0  0  0  0  0  0  0
    2.5022    4.3791    0.0081 H   0  0  0  0  0  0  0  0  0  0  0  0
    3.9314    2.3884    0.0023 H   0  0  0  0  0  0  0  0  0  0  0  0
    4.9466    0.5926   -0.0183 H   0  0  0  0  0  0  0  0  0  0  0  0
    6.0761   -1.5723   -0.0245 H   0  0  0  0  0  0  0  0  0  0  0  0
    4.7778   -3.6587   -0.0072 H   0  0  0  0  0  0  0  0  0  0  0  0
    2.3447   -3.6131    0.0125 H   0  0  0  0  0  0  0  0  0  0  0  0
    0.2597   -2.3869    0.0147 H   0  0  0  0  0  0  0  0  0  0  0  0
  1  2  2  0  0  0  0
  2  3  1  0  0  0  0
  3  4  2  0  0  0  0
  4  5  1  0  0  0  0
  5  6  1  0  0  0  0
  6  7  2  0  0  0  0
  7  8  1  0  0  0  0
  8  9  1  0  0  0  0
  9 10  1  0  0  0  0
 10 11  2  0  0  0  0
 11 12  1  0  0  0  0
 12 13  2  0  0  0  0
 13 14  1  0  0  0  0
 14 15  1  0  0  0  0
 15 16  2  0  0  0  0
 16 17  1  0  0  0  0
 17 18  2  0  0  0  0
 18 19  1  0  0  0  0
 14 19  2  0  0  0  0
 19 20  1  0  0  0  0
 20 21  2  0  0  0  0
 21 22  1  0  0  0  0
  8 22  2  0  0  0  0
 22 23  1  0  0  0  0
  1 23  1  0  0  0  0
  5 23  2  0  0  0  0
 21 24  1  0  0  0  0
 13 24  1  0  0  0  0
  9 24  2  0  0  0  0
  1 25  1  0  0  0  0
  2 26  1  0  0  0  0
  3 27  1  0  0  0  0
  4 28  1  0  0  0  0
  6 29  1  0  0  0  0
  7 30  1  0  0  0  0
 10 31  1  0  0  0  0
 11 32  1  0  0  0  0
 12 33  1  0  0  0  0
 15 34  1  0  0  0  0
 16 35  1  0  0  0  0
 17 36  1  0  0  0  0
 18 37  1  0  0  0  0
 20 38  1  0  0  0  0
M  END
$$$$
