C28H16
APtclcactv01171906283D 0   0.00000     0.00000
 
 44 50  0  0  0  0  0  0  0  0999 V2000
    3.8287   -2.8964   -0.1365 C   0  0  0  0  0  0  0  0  0  0  0  0
    2.8272   -1.9301   -0.2637 C   0  0  0  0  0  0  0  0  0  0  0  0
    1.4977   -2.2692   -0.6037 C   0  0  0  0  0  0  0  0  0  0  0  0
    0.5266   -1.3250   -0.6380 C   0  0  0  0  0  0  0  0  0  0  0  0
    0.7924    0.0120   -0.2776 C   0  0  0  0  0  0  0  0  0  0  0  0
   -0.2190    0.9791   -0.1100 C   0  0  0  0  0  0  0  0  0  0  0  0
   -1.6349    0.6120    0.0060 C   0  0  0  0  0  0  0  0  0  0  0  0
   -2.0442   -0.6908    0.2396 C   0  0  0  0  0  0  0  0  0  0  0  0
   -3.4045   -1.0146    0.2197 C   0  0  0  0  0  0  0  0  0  0  0  0
   -3.8448   -2.3367    0.4247 C   0  0  0  0  0  0  0  0  0  0  0  0
   -5.1722   -2.6207    0.3533 C   0  0  0  0  0  0  0  0  0  0  0  0
   -6.1191   -1.6311    0.0968 C   0  0  0  0  0  0  0  0  0  0  0  0
   -5.7633   -0.3313   -0.0821 C   0  0  0  0  0  0  0  0  0  0  0  0
   -4.4038    0.0307   -0.0131 C   0  0  0  0  0  0  0  0  0  0  0  0
   -3.9970    1.3601   -0.1413 C   0  0  0  0  0  0  0  0  0  0  0  0
   -2.6440    1.6725   -0.1027 C   0  0  0  0  0  0  0  0  0  0  0  0
   -2.2141    3.0691   -0.1328 C   0  0  0  0  0  0  0  0  0  0  0  0
   -0.9078    3.3800   -0.0877 C   0  0  0  0  0  0  0  0  0  0  0  0
    0.1291    2.3495   -0.0460 C   0  0  0  0  0  0  0  0  0  0  0  0
    1.4665    2.7524    0.0775 C   0  0  0  0  0  0  0  0  0  0  0  0
    2.4823    1.8061    0.0972 C   0  0  0  0  0  0  0  0  0  0  0  0
    3.8841    2.1795    0.2672 C   0  0  0  0  0  0  0  0  0  0  0  0
    4.8399    1.2234    0.3127 C   0  0  0  0  0  0  0  0  0  0  0  0
    4.4955   -0.1887    0.1818 C   0  0  0  0  0  0  0  0  0  0  0  0
    3.1559   -0.5705   -0.0550 C   0  0  0  0  0  0  0  0  0  0  0  0
    2.1374    0.3970   -0.0743 C   0  0  0  0  0  0  0  0  0  0  0  0
    5.4690   -1.1850    0.2986 C   0  0  0  0  0  0  0  0  0  0  0  0
    5.1246   -2.5152    0.1498 C   0  0  0  0  0  0  0  0  0  0  0  0
    3.5887   -3.9429   -0.2574 H   0  0  0  0  0  0  0  0  0  0  0  0
    1.2526   -3.2941   -0.8404 H   0  0  0  0  0  0  0  0  0  0  0  0
   -0.4536   -1.6058   -0.9960 H   0  0  0  0  0  0  0  0  0  0  0  0
   -1.3269   -1.4605    0.4858 H   0  0  0  0  0  0  0  0  0  0  0  0
   -3.1326   -3.1202    0.6381 H   0  0  0  0  0  0  0  0  0  0  0  0
   -5.5010   -3.6398    0.4966 H   0  0  0  0  0  0  0  0  0  0  0  0
   -7.1622   -1.9043    0.0370 H   0  0  0  0  0  0  0  0  0  0  0  0
   -6.5179    0.4169   -0.2759 H   0  0  0  0  0  0  0  0  0  0  0  0
   -4.7309    2.1424   -0.2723 H   0  0  0  0  0  0  0  0  0  0  0  0
   -2.9517    3.8558   -0.1880 H   0  0  0  0  0  0  0  0  0  0  0  0
   -0.6147    4.4196   -0.0793 H   0  0  0  0  0  0  0  0  0  0  0  0
    1.7069    3.8022    0.1564 H   0  0  0  0  0  0  0  0  0  0  0  0
    4.1584    3.2205    0.3541 H   0  0  0  0  0  0  0  0  0  0  0  0
    5.8723    1.5092    0.4462 H   0  0  0  0  0  0  0  0  0  0  0  0
    6.4946   -0.9139    0.5032 H   0  0  0  0  0  0  0  0  0  0  0  0
    5.8858   -3.2732    0.2610 H   0  0  0  0  0  0  0  0  0  0  0  0
  1  2  2  0  0  0  0
  2  3  1  0  0  0  0
  3  4  2  0  0  0  0
  4  5  1  0  0  0  0
  5  6  2  0  0  0  0
  6  7  1  0  0  0  0
  7  8  2  0  0  0  0
  8  9  1  0  0  0  0
  9 10  2  0  0  0  0
 10 11  1  0  0  0  0
 11 12  2  0  0  0  0
 12 13  1  0  0  0  0
 13 14  2  0  0  0  0
  9 14  1  0  0  0  0
 14 15  1  0  0  0  0
 15 16  2  0  0  0  0
  7 16  1  0  0  0  0
 16 17  1  0  0  0  0
 17 18  2  0  0  0  0
 18 19  1  0  0  0  0
  6 19  1  0  0  0  0
 19 20  2  0  0  0  0
 20 21  1  0  0  0  0
 21 22  2  0  0  0  0
 22 23  1  0  0  0  0
 23 24  2  0  0  0  0
 24 25  1  0  0  0  0
  2 25  1  0  0  0  0
 25 26  2  0  0  0  0
  5 26  1  0  0  0  0
 21 26  1  0  0  0  0
 24 27  1  0  0  0  0
 27 28  2  0  0  0  0
  1 28  1  0  0  0  0
  1 29  1  0  0  0  0
  3 30  1  0  0  0  0
  4 31  1  0  0  0  0
  8 32  1  0  0  0  0
 10 33  1  0  0  0  0
 11 34  1  0  0  0  0
 12 35  1  0  0  0  0
 13 36  1  0  0  0  0
 15 37  1  0  0  0  0
 17 38  1  0  0  0  0
 18 39  1  0  0  0  0
 20 40  1  0  0  0  0
 22 41  1  0  0  0  0
 23 42  1  0  0  0  0
 27 43  1  0  0  0  0
 28 44  1  0  0  0  0
M  END
$$$$
