C28H16
APtclcactv01171906283D 0   0.00000     0.00000
 
 44 50  0  0  0  0  0  0  0  0999 V2000
   -1.4813   -2.6423    0.0032 C   0  0  0  0  0  0  0  0  0  0  0  0
   -2.6062   -3.4569    0.0018 C   0  0  0  0  0  0  0  0  0  0  0  0
   -3.8618   -2.9245    0.0000 C   0  0  0  0  0  0  0  0  0  0  0  0
   -4.0383   -1.5302   -0.0008 C   0  0  0  0  0  0  0  0  0  0  0  0
   -5.3232   -0.9594   -0.0020 C   0  0  0  0  0  0  0  0  0  0  0  0
   -5.4702    0.3959   -0.0019 C   0  0  0  0  0  0  0  0  0  0  0  0
   -4.3656    1.2381   -0.0009 C   0  0  0  0  0  0  0  0  0  0  0  0
   -3.0807    0.7151   -0.0002 C   0  0  0  0  0  0  0  0  0  0  0  0
   -1.9087    1.6110   -0.0002 C   0  0  0  0  0  0  0  0  0  0  0  0
   -2.0619    2.9911   -0.0001 C   0  0  0  0  0  0  0  0  0  0  0  0
   -0.9498    3.8196    0.0004 C   0  0  0  0  0  0  0  0  0  0  0  0
    0.3253    3.2977    0.0007 C   0  0  0  0  0  0  0  0  0  0  0  0
    0.5122    1.9125    0.0005 C   0  0  0  0  0  0  0  0  0  0  0  0
    1.8509    1.3162    0.0003 C   0  0  0  0  0  0  0  0  0  0  0  0
    1.9804   -0.0873   -0.0002 C   0  0  0  0  0  0  0  0  0  0  0  0
    0.8509   -0.9176   -0.0002 C   0  0  0  0  0  0  0  0  0  0  0  0
   -0.4230   -0.3890   -0.0005 C   0  0  0  0  0  0  0  0  0  0  0  0
   -1.6130   -1.2619    0.0028 C   0  0  0  0  0  0  0  0  0  0  0  0
   -2.9026   -0.6856    0.0006 C   0  0  0  0  0  0  0  0  0  0  0  0
   -0.6111    1.0608    0.0001 C   0  0  0  0  0  0  0  0  0  0  0  0
    3.3298   -0.6630   -0.0003 C   0  0  0  0  0  0  0  0  0  0  0  0
    3.5317   -2.0450   -0.0013 C   0  0  0  0  0  0  0  0  0  0  0  0
    4.8034   -2.5425   -0.0018 C   0  0  0  0  0  0  0  0  0  0  0  0
    5.9017   -1.6898   -0.0014 C   0  0  0  0  0  0  0  0  0  0  0  0
    5.7375   -0.3360   -0.0005 C   0  0  0  0  0  0  0  0  0  0  0  0
    4.4440    0.2075    0.0001 C   0  0  0  0  0  0  0  0  0  0  0  0
    4.2425    1.6044    0.0015 C   0  0  0  0  0  0  0  0  0  0  0  0
    2.9966    2.1314    0.0003 C   0  0  0  0  0  0  0  0  0  0  0  0
   -0.4971   -3.0871    0.0091 H   0  0  0  0  0  0  0  0  0  0  0  0
   -2.4846   -4.5301    0.0017 H   0  0  0  0  0  0  0  0  0  0  0  0
   -4.7230   -3.5763   -0.0010 H   0  0  0  0  0  0  0  0  0  0  0  0
   -6.1956   -1.5961   -0.0035 H   0  0  0  0  0  0  0  0  0  0  0  0
   -6.4626    0.8220   -0.0028 H   0  0  0  0  0  0  0  0  0  0  0  0
   -4.5082    2.3086   -0.0012 H   0  0  0  0  0  0  0  0  0  0  0  0
   -3.0524    3.4216   -0.0006 H   0  0  0  0  0  0  0  0  0  0  0  0
   -1.0854    4.8911    0.0001 H   0  0  0  0  0  0  0  0  0  0  0  0
    1.1797    3.9584    0.0007 H   0  0  0  0  0  0  0  0  0  0  0  0
    0.9805   -1.9898   -0.0003 H   0  0  0  0  0  0  0  0  0  0  0  0
    2.6861   -2.7169   -0.0012 H   0  0  0  0  0  0  0  0  0  0  0  0
    4.9581   -3.6113   -0.0021 H   0  0  0  0  0  0  0  0  0  0  0  0
    6.8985   -2.1053   -0.0014 H   0  0  0  0  0  0  0  0  0  0  0  0
    6.5994    0.3148    0.0002 H   0  0  0  0  0  0  0  0  0  0  0  0
    5.0976    2.2640    0.0018 H   0  0  0  0  0  0  0  0  0  0  0  0
    2.8789    3.2049    0.0012 H   0  0  0  0  0  0  0  0  0  0  0  0
  1  2  2  0  0  0  0
  2  3  1  0  0  0  0
  3  4  2  0  0  0  0
  4  5  1  0  0  0  0
  5  6  2  0  0  0  0
  6  7  1  0  0  0  0
  7  8  2  0  0  0  0
  8  9  1  0  0  0  0
  9 10  1  0  0  0  0
 10 11  2  0  0  0  0
 11 12  1  0  0  0  0
 12 13  2  0  0  0  0
 13 14  1  0  0  0  0
 14 15  2  0  0  0  0
 15 16  1  0  0  0  0
 16 17  2  0  0  0  0
 17 18  1  0  0  0  0
  1 18  1  0  0  0  0
 18 19  2  0  0  0  0
  8 19  1  0  0  0  0
  4 19  1  0  0  0  0
 17 20  1  0  0  0  0
 13 20  1  0  0  0  0
  9 20  2  0  0  0  0
 15 21  1  0  0  0  0
 21 22  2  0  0  0  0
 22 23  1  0  0  0  0
 23 24  2  0  0  0  0
 24 25  1  0  0  0  0
 25 26  2  0  0  0  0
 21 26  1  0  0  0  0
 26 27  1  0  0  0  0
 27 28  2  0  0  0  0
 14 28  1  0  0  0  0
  1 29  1  0  0  0  0
  2 30  1  0  0  0  0
  3 31  1  0  0  0  0
  5 32  1  0  0  0  0
  6 33  1  0  0  0  0
  7 34  1  0  0  0  0
 10 35  1  0  0  0  0
 11 36  1  0  0  0  0
 12 37  1  0  0  0  0
 16 38  1  0  0  0  0
 22 39  1  0  0  0  0
 23 40  1  0  0  0  0
 24 41  1  0  0  0  0
 25 42  1  0  0  0  0
 27 43  1  0  0  0  0
 28 44  1  0  0  0  0
M  END
$$$$
