C30H18
APtclcactv01171906283D 0   0.00000     0.00000
 
 48 54  0  0  0  0  0  0  0  0999 V2000
    5.7322   -2.5653   -0.0006 C   0  0  0  0  0  0  0  0  0  0  0  0
    4.5960   -1.7420   -0.0001 C   0  0  0  0  0  0  0  0  0  0  0  0
    3.2972   -2.2932   -0.0001 C   0  0  0  0  0  0  0  0  0  0  0  0
    2.2001   -1.5010   -0.0005 C   0  0  0  0  0  0  0  0  0  0  0  0
    2.3065   -0.0997   -0.0005 C   0  0  0  0  0  0  0  0  0  0  0  0
    3.5727    0.5148   -0.0003 C   0  0  0  0  0  0  0  0  0  0  0  0
    3.6807    1.9174   -0.0000 C   0  0  0  0  0  0  0  0  0  0  0  0
    2.5861    2.7100    0.0001 C   0  0  0  0  0  0  0  0  0  0  0  0
    1.2831    2.1612   -0.0001 C   0  0  0  0  0  0  0  0  0  0  0  0
    0.1628    2.9952    0.0001 C   0  0  0  0  0  0  0  0  0  0  0  0
   -1.1156    2.4423   -0.0000 C   0  0  0  0  0  0  0  0  0  0  0  0
   -2.2865    3.3183    0.0001 C   0  0  0  0  0  0  0  0  0  0  0  0
   -3.5379    2.8271    0.0000 C   0  0  0  0  0  0  0  0  0  0  0  0
   -3.7773    1.3836   -0.0002 C   0  0  0  0  0  0  0  0  0  0  0  0
   -5.0738    0.8849    0.0003 C   0  0  0  0  0  0  0  0  0  0  0  0
   -5.2830   -0.4973    0.0005 C   0  0  0  0  0  0  0  0  0  0  0  0
   -6.5839   -1.0384    0.0006 C   0  0  0  0  0  0  0  0  0  0  0  0
   -6.7488   -2.3878    0.0003 C   0  0  0  0  0  0  0  0  0  0  0  0
   -5.6603   -3.2573    0.0001 C   0  0  0  0  0  0  0  0  0  0  0  0
   -4.3802   -2.7989    0.0001 C   0  0  0  0  0  0  0  0  0  0  0  0
   -4.1389   -1.4114    0.0003 C   0  0  0  0  0  0  0  0  0  0  0  0
   -2.8354   -0.9015   -0.0001 C   0  0  0  0  0  0  0  0  0  0  0  0
   -2.6357    0.4677   -0.0004 C   0  0  0  0  0  0  0  0  0  0  0  0
   -1.2758    1.0335   -0.0008 C   0  0  0  0  0  0  0  0  0  0  0  0
   -0.1654    0.2012   -0.0014 C   0  0  0  0  0  0  0  0  0  0  0  0
    1.1135    0.7524   -0.0004 C   0  0  0  0  0  0  0  0  0  0  0  0
    4.7633   -0.3370   -0.0002 C   0  0  0  0  0  0  0  0  0  0  0  0
    6.0505    0.2071    0.0012 C   0  0  0  0  0  0  0  0  0  0  0  0
    7.1346   -0.6222    0.0022 C   0  0  0  0  0  0  0  0  0  0  0  0
    6.9744   -2.0037   -0.0010 C   0  0  0  0  0  0  0  0  0  0  0  0
    5.6230   -3.6398    0.0040 H   0  0  0  0  0  0  0  0  0  0  0  0
    3.1765   -3.3665   -0.0001 H   0  0  0  0  0  0  0  0  0  0  0  0
    1.2206   -1.9560   -0.0012 H   0  0  0  0  0  0  0  0  0  0  0  0
    4.6607    2.3711    0.0005 H   0  0  0  0  0  0  0  0  0  0  0  0
    2.7090    3.7830    0.0006 H   0  0  0  0  0  0  0  0  0  0  0  0
    0.2876    4.0680    0.0006 H   0  0  0  0  0  0  0  0  0  0  0  0
   -2.1420    4.3886    0.0006 H   0  0  0  0  0  0  0  0  0  0  0  0
   -4.3773    3.5067    0.0005 H   0  0  0  0  0  0  0  0  0  0  0  0
   -5.9157    1.5614    0.0008 H   0  0  0  0  0  0  0  0  0  0  0  0
   -7.4442   -0.3855    0.0011 H   0  0  0  0  0  0  0  0  0  0  0  0
   -7.7487   -2.7960    0.0007 H   0  0  0  0  0  0  0  0  0  0  0  0
   -5.8378   -4.3226    0.0003 H   0  0  0  0  0  0  0  0  0  0  0  0
   -3.5538   -3.4942   -0.0004 H   0  0  0  0  0  0  0  0  0  0  0  0
   -1.9899   -1.5734   -0.0003 H   0  0  0  0  0  0  0  0  0  0  0  0
   -0.2926   -0.8713   -0.0012 H   0  0  0  0  0  0  0  0  0  0  0  0
    6.1868    1.2784    0.0011 H   0  0  0  0  0  0  0  0  0  0  0  0
    8.1289   -0.2005    0.0029 H   0  0  0  0  0  0  0  0  0  0  0  0
    7.8465   -2.6407   -0.0001 H   0  0  0  0  0  0  0  0  0  0  0  0
  1  2  2  0  0  0  0
  2  3  1  0  0  0  0
  3  4  2  0  0  0  0
  4  5  1  0  0  0  0
  5  6  1  0  0  0  0
  6  7  2  0  0  0  0
  7  8  1  0  0  0  0
  8  9  2  0  0  0  0
  9 10  1  0  0  0  0
 10 11  2  0  0  0  0
 11 12  1  0  0  0  0
 12 13  2  0  0  0  0
 13 14  1  0  0  0  0
 14 15  2  0  0  0  0
 15 16  1  0  0  0  0
 16 17  2  0  0  0  0
 17 18  1  0  0  0  0
 18 19  2  0  0  0  0
 19 20  1  0  0  0  0
 20 21  2  0  0  0  0
 16 21  1  0  0  0  0
 21 22  1  0  0  0  0
 22 23  2  0  0  0  0
 14 23  1  0  0  0  0
 23 24  1  0  0  0  0
 11 24  1  0  0  0  0
 24 25  2  0  0  0  0
 25 26  1  0  0  0  0
  5 26  2  0  0  0  0
  9 26  1  0  0  0  0
  6 27  1  0  0  0  0
  2 27  1  0  0  0  0
 27 28  2  0  0  0  0
 28 29  1  0  0  0  0
 29 30  2  0  0  0  0
  1 30  1  0  0  0  0
  1 31  1  0  0  0  0
  3 32  1  0  0  0  0
  4 33  1  0  0  0  0
  7 34  1  0  0  0  0
  8 35  1  0  0  0  0
 10 36  1  0  0  0  0
 12 37  1  0  0  0  0
 13 38  1  0  0  0  0
 15 39  1  0  0  0  0
 17 40  1  0  0  0  0
 18 41  1  0  0  0  0
 19 42  1  0  0  0  0
 20 43  1  0  0  0  0
 22 44  1  0  0  0  0
 25 45  1  0  0  0  0
 28 46  1  0  0  0  0
 29 47  1  0  0  0  0
 30 48  1  0  0  0  0
M  END
$$$$
