C24H14
APtclcactv01171906283D 0   0.00000     0.00000
 
 38 43  0  0  0  0  0  0  0  0999 V2000
    4.6549   -1.5191    0.0060 C   0  0  0  0  0  0  0  0  0  0  0  0
    3.2894   -1.2100   -0.0035 C   0  0  0  0  0  0  0  0  0  0  0  0
    2.2790   -2.2631   -0.0167 C   0  0  0  0  0  0  0  0  0  0  0  0
    0.9658   -1.9557   -0.0210 C   0  0  0  0  0  0  0  0  0  0  0  0
    0.5149   -0.6175   -0.0135 C   0  0  0  0  0  0  0  0  0  0  0  0
    1.4466    0.4569   -0.0089 C   0  0  0  0  0  0  0  0  0  0  0  0
    1.0367    1.7889   -0.0091 C   0  0  0  0  0  0  0  0  0  0  0  0
   -0.3321    2.0811   -0.0080 C   0  0  0  0  0  0  0  0  0  0  0  0
   -0.8731    3.3810   -0.0081 C   0  0  0  0  0  0  0  0  0  0  0  0
   -2.2313    3.5343   -0.0013 C   0  0  0  0  0  0  0  0  0  0  0  0
   -3.1166    2.4566    0.0048 C   0  0  0  0  0  0  0  0  0  0  0  0
   -2.6276    1.1618    0.0022 C   0  0  0  0  0  0  0  0  0  0  0  0
   -3.1934   -0.2002    0.0059 C   0  0  0  0  0  0  0  0  0  0  0  0
   -4.4971   -0.6846    0.0164 C   0  0  0  0  0  0  0  0  0  0  0  0
   -4.7320   -2.0444    0.0166 C   0  0  0  0  0  0  0  0  0  0  0  0
   -3.6744   -2.9394    0.0063 C   0  0  0  0  0  0  0  0  0  0  0  0
   -2.3728   -2.4831   -0.0036 C   0  0  0  0  0  0  0  0  0  0  0  0
   -2.1106   -1.1154   -0.0031 C   0  0  0  0  0  0  0  0  0  0  0  0
   -0.8620   -0.3347   -0.0085 C   0  0  0  0  0  0  0  0  0  0  0  0
   -1.2337    1.0073   -0.0056 C   0  0  0  0  0  0  0  0  0  0  0  0
    2.8842    0.1419   -0.0006 C   0  0  0  0  0  0  0  0  0  0  0  0
    3.8460    1.1519    0.0108 C   0  0  0  0  0  0  0  0  0  0  0  0
    5.1821    0.8176    0.0202 C   0  0  0  0  0  0  0  0  0  0  0  0
    5.5785   -0.5134    0.0176 C   0  0  0  0  0  0  0  0  0  0  0  0
    4.9767   -2.5500    0.0086 H   0  0  0  0  0  0  0  0  0  0  0  0
    2.5859   -3.2986   -0.0234 H   0  0  0  0  0  0  0  0  0  0  0  0
    0.2393   -2.7548   -0.0309 H   0  0  0  0  0  0  0  0  0  0  0  0
    1.7660    2.5855   -0.0097 H   0  0  0  0  0  0  0  0  0  0  0  0
   -0.2244    4.2444   -0.0132 H   0  0  0  0  0  0  0  0  0  0  0  0
   -2.6373    4.5351   -0.0002 H   0  0  0  0  0  0  0  0  0  0  0  0
   -4.1822    2.6321    0.0119 H   0  0  0  0  0  0  0  0  0  0  0  0
   -5.3279    0.0054    0.0246 H   0  0  0  0  0  0  0  0  0  0  0  0
   -5.7470   -2.4134    0.0252 H   0  0  0  0  0  0  0  0  0  0  0  0
   -3.8705   -4.0014    0.0064 H   0  0  0  0  0  0  0  0  0  0  0  0
   -1.5549   -3.1884   -0.0113 H   0  0  0  0  0  0  0  0  0  0  0  0
    3.5451    2.1892    0.0119 H   0  0  0  0  0  0  0  0  0  0  0  0
    5.9287    1.5979    0.0292 H   0  0  0  0  0  0  0  0  0  0  0  0
    6.6308   -0.7562    0.0257 H   0  0  0  0  0  0  0  0  0  0  0  0
  1  2  2  0  0  0  0
  2  3  1  0  0  0  0
  3  4  2  0  0  0  0
  4  5  1  0  0  0  0
  5  6  1  0  0  0  0
  6  7  2  0  0  0  0
  7  8  1  0  0  0  0
  8  9  2  0  0  0  0
  9 10  1  0  0  0  0
 10 11  2  0  0  0  0
 11 12  1  0  0  0  0
 12 13  1  0  0  0  0
 13 14  2  0  0  0  0
 14 15  1  0  0  0  0
 15 16  2  0  0  0  0
 16 17  1  0  0  0  0
 17 18  2  0  0  0  0
 13 18  1  0  0  0  0
 18 19  1  0  0  0  0
  5 19  2  0  0  0  0
 19 20  1  0  0  0  0
  8 20  1  0  0  0  0
 12 20  2  0  0  0  0
  6 21  1  0  0  0  0
  2 21  1  0  0  0  0
 21 22  2  0  0  0  0
 22 23  1  0  0  0  0
 23 24  2  0  0  0  0
  1 24  1  0  0  0  0
  1 25  1  0  0  0  0
  3 26  1  0  0  0  0
  4 27  1  0  0  0  0
  7 28  1  0  0  0  0
  9 29  1  0  0  0  0
 10 30  1  0  0  0  0
 11 31  1  0  0  0  0
 14 32  1  0  0  0  0
 15 33  1  0  0  0  0
 16 34  1  0  0  0  0
 17 35  1  0  0  0  0
 22 36  1  0  0  0  0
 23 37  1  0  0  0  0
 24 38  1  0  0  0  0
M  END
$$$$
