C26H16
APtclcactv01171906283D 0   0.00000     0.00000
 
 42 47  0  0  0  0  0  0  0  0999 V2000
    2.2055   -1.9249    0.4237 C   0  0  0  0  0  0  0  0  0  0  0  0
    2.8236   -3.1371    0.3212 C   0  0  0  0  0  0  0  0  0  0  0  0
    4.1711   -3.2255   -0.0135 C   0  0  0  0  0  0  0  0  0  0  0  0
    4.9119   -2.0977   -0.2016 C   0  0  0  0  0  0  0  0  0  0  0  0
    4.3062   -0.8385   -0.0799 C   0  0  0  0  0  0  0  0  0  0  0  0
    5.0767    0.3413   -0.1261 C   0  0  0  0  0  0  0  0  0  0  0  0
    4.4891    1.5560   -0.0806 C   0  0  0  0  0  0  0  0  0  0  0  0
    3.0856    1.6955   -0.0247 C   0  0  0  0  0  0  0  0  0  0  0  0
    2.2641    0.5524    0.0059 C   0  0  0  0  0  0  0  0  0  0  0  0
    0.8116    0.7328   -0.0480 C   0  0  0  0  0  0  0  0  0  0  0  0
   -0.0676   -0.3192   -0.2189 C   0  0  0  0  0  0  0  0  0  0  0  0
   -1.4541   -0.1077   -0.1354 C   0  0  0  0  0  0  0  0  0  0  0  0
   -2.3375   -1.1923   -0.1869 C   0  0  0  0  0  0  0  0  0  0  0  0
   -3.7076   -0.9714   -0.0979 C   0  0  0  0  0  0  0  0  0  0  0  0
   -4.6230   -2.0466   -0.1196 C   0  0  0  0  0  0  0  0  0  0  0  0
   -5.9542   -1.7959   -0.0386 C   0  0  0  0  0  0  0  0  0  0  0  0
   -6.4514   -0.4950    0.0607 C   0  0  0  0  0  0  0  0  0  0  0  0
   -5.6285    0.5838    0.0882 C   0  0  0  0  0  0  0  0  0  0  0  0
   -4.2302    0.3954    0.0222 C   0  0  0  0  0  0  0  0  0  0  0  0
   -3.3572    1.4766    0.0767 C   0  0  0  0  0  0  0  0  0  0  0  0
   -1.9764    1.2568    0.0085 C   0  0  0  0  0  0  0  0  0  0  0  0
   -1.0826    2.3345    0.0806 C   0  0  0  0  0  0  0  0  0  0  0  0
    0.2847    2.1035    0.0457 C   0  0  0  0  0  0  0  0  0  0  0  0
    1.1906    3.1927    0.0766 C   0  0  0  0  0  0  0  0  0  0  0  0
    2.5190    2.9908    0.0290 C   0  0  0  0  0  0  0  0  0  0  0  0
    2.9021   -0.7533    0.1152 C   0  0  0  0  0  0  0  0  0  0  0  0
    1.1940   -1.8856    0.7986 H   0  0  0  0  0  0  0  0  0  0  0  0
    2.2585   -4.0400    0.4988 H   0  0  0  0  0  0  0  0  0  0  0  0
    4.6338   -4.1939   -0.1258 H   0  0  0  0  0  0  0  0  0  0  0  0
    5.9625   -2.1725   -0.4420 H   0  0  0  0  0  0  0  0  0  0  0  0
    6.1515    0.2716   -0.1982 H   0  0  0  0  0  0  0  0  0  0  0  0
    5.1067    2.4419   -0.0848 H   0  0  0  0  0  0  0  0  0  0  0  0
    0.2921   -1.3042   -0.4749 H   0  0  0  0  0  0  0  0  0  0  0  0
   -1.9564   -2.1968   -0.2965 H   0  0  0  0  0  0  0  0  0  0  0  0
   -4.2652   -3.0630   -0.1964 H   0  0  0  0  0  0  0  0  0  0  0  0
   -6.6466   -2.6245   -0.0469 H   0  0  0  0  0  0  0  0  0  0  0  0
   -7.5192   -0.3437    0.1167 H   0  0  0  0  0  0  0  0  0  0  0  0
   -6.0407    1.5794    0.1568 H   0  0  0  0  0  0  0  0  0  0  0  0
   -3.7432    2.4806    0.1707 H   0  0  0  0  0  0  0  0  0  0  0  0
   -1.4579    3.3448    0.1624 H   0  0  0  0  0  0  0  0  0  0  0  0
    0.8069    4.2004    0.1377 H   0  0  0  0  0  0  0  0  0  0  0  0
    3.1780    3.8464    0.0336 H   0  0  0  0  0  0  0  0  0  0  0  0
  1  2  2  0  0  0  0
  2  3  1  0  0  0  0
  3  4  2  0  0  0  0
  4  5  1  0  0  0  0
  5  6  1  0  0  0  0
  6  7  2  0  0  0  0
  7  8  1  0  0  0  0
  8  9  1  0  0  0  0
  9 10  2  0  0  0  0
 10 11  1  0  0  0  0
 11 12  2  0  0  0  0
 12 13  1  0  0  0  0
 13 14  2  0  0  0  0
 14 15  1  0  0  0  0
 15 16  2  0  0  0  0
 16 17  1  0  0  0  0
 17 18  2  0  0  0  0
 18 19  1  0  0  0  0
 14 19  1  0  0  0  0
 19 20  2  0  0  0  0
 20 21  1  0  0  0  0
 12 21  1  0  0  0  0
 21 22  2  0  0  0  0
 22 23  1  0  0  0  0
 10 23  1  0  0  0  0
 23 24  2  0  0  0  0
 24 25  1  0  0  0  0
  8 25  2  0  0  0  0
  9 26  1  0  0  0  0
  1 26  1  0  0  0  0
  5 26  2  0  0  0  0
  1 27  1  0  0  0  0
  2 28  1  0  0  0  0
  3 29  1  0  0  0  0
  4 30  1  0  0  0  0
  6 31  1  0  0  0  0
  7 32  1  0  0  0  0
 11 33  1  0  0  0  0
 13 34  1  0  0  0  0
 15 35  1  0  0  0  0
 16 36  1  0  0  0  0
 17 37  1  0  0  0  0
 18 38  1  0  0  0  0
 20 39  1  0  0  0  0
 22 40  1  0  0  0  0
 24 41  1  0  0  0  0
 25 42  1  0  0  0  0
M  END
$$$$
