C30H16
APtclcactv01171906293D 0   0.00000     0.00000
 
 46 53  0  0  0  0  0  0  0  0999 V2000
   -4.3691   -2.1482    0.0011 C   0  0  0  0  0  0  0  0  0  0  0  0
   -5.7244   -2.3173   -0.0005 C   0  0  0  0  0  0  0  0  0  0  0  0
   -6.5775   -1.2191   -0.0026 C   0  0  0  0  0  0  0  0  0  0  0  0
   -6.0836    0.0505   -0.0032 C   0  0  0  0  0  0  0  0  0  0  0  0
   -4.6919    0.2616   -0.0016 C   0  0  0  0  0  0  0  0  0  0  0  0
   -4.1781    1.5719   -0.0016 C   0  0  0  0  0  0  0  0  0  0  0  0
   -2.8133    1.8041   -0.0005 C   0  0  0  0  0  0  0  0  0  0  0  0
   -2.2788    3.1664   -0.0005 C   0  0  0  0  0  0  0  0  0  0  0  0
   -0.9495    3.3947    0.0004 C   0  0  0  0  0  0  0  0  0  0  0  0
    0.0036    2.2843    0.0014 C   0  0  0  0  0  0  0  0  0  0  0  0
    1.3703    2.5134    0.0014 C   0  0  0  0  0  0  0  0  0  0  0  0
    2.2760    1.4311    0.0013 C   0  0  0  0  0  0  0  0  0  0  0  0
    3.6522    1.6510    0.0002 C   0  0  0  0  0  0  0  0  0  0  0  0
    4.5519    0.5772   -0.0004 C   0  0  0  0  0  0  0  0  0  0  0  0
    5.9416    0.8200   -0.0017 C   0  0  0  0  0  0  0  0  0  0  0  0
    6.8117   -0.2250   -0.0027 C   0  0  0  0  0  0  0  0  0  0  0  0
    6.3525   -1.5405   -0.0028 C   0  0  0  0  0  0  0  0  0  0  0  0
    5.0172   -1.8142   -0.0016 C   0  0  0  0  0  0  0  0  0  0  0  0
    4.0901   -0.7647   -0.0001 C   0  0  0  0  0  0  0  0  0  0  0  0
    2.6544   -1.0351    0.0008 C   0  0  0  0  0  0  0  0  0  0  0  0
    1.7674    0.0569    0.0021 C   0  0  0  0  0  0  0  0  0  0  0  0
    0.3820   -0.1805    0.0027 C   0  0  0  0  0  0  0  0  0  0  0  0
   -0.5055    0.9097    0.0021 C   0  0  0  0  0  0  0  0  0  0  0  0
   -1.8861    0.6705    0.0011 C   0  0  0  0  0  0  0  0  0  0  0  0
   -2.3750   -0.6559    0.0008 C   0  0  0  0  0  0  0  0  0  0  0  0
   -3.8288   -0.8603    0.0006 C   0  0  0  0  0  0  0  0  0  0  0  0
   -1.4907   -1.7330    0.0009 C   0  0  0  0  0  0  0  0  0  0  0  0
   -0.1116   -1.5104    0.0017 C   0  0  0  0  0  0  0  0  0  0  0  0
    0.8101   -2.5834    0.0013 C   0  0  0  0  0  0  0  0  0  0  0  0
    2.1457   -2.3484    0.0012 C   0  0  0  0  0  0  0  0  0  0  0  0
   -3.7165   -3.0087    0.0073 H   0  0  0  0  0  0  0  0  0  0  0  0
   -6.1381   -3.3149   -0.0004 H   0  0  0  0  0  0  0  0  0  0  0  0
   -7.6462   -1.3749   -0.0043 H   0  0  0  0  0  0  0  0  0  0  0  0
   -6.7587    0.8936   -0.0053 H   0  0  0  0  0  0  0  0  0  0  0  0
   -4.8595    2.4098   -0.0029 H   0  0  0  0  0  0  0  0  0  0  0  0
   -2.9608    4.0038   -0.0017 H   0  0  0  0  0  0  0  0  0  0  0  0
   -0.5835    4.4108    0.0000 H   0  0  0  0  0  0  0  0  0  0  0  0
    1.7446    3.5265    0.0009 H   0  0  0  0  0  0  0  0  0  0  0  0
    4.0301    2.6627   -0.0007 H   0  0  0  0  0  0  0  0  0  0  0  0
    6.3137    1.8339   -0.0023 H   0  0  0  0  0  0  0  0  0  0  0  0
    7.8744   -0.0325   -0.0037 H   0  0  0  0  0  0  0  0  0  0  0  0
    7.0634   -2.3534   -0.0044 H   0  0  0  0  0  0  0  0  0  0  0  0
    4.6749   -2.8386   -0.0021 H   0  0  0  0  0  0  0  0  0  0  0  0
   -1.8729   -2.7431    0.0011 H   0  0  0  0  0  0  0  0  0  0  0  0
    0.4465   -3.6004    0.0013 H   0  0  0  0  0  0  0  0  0  0  0  0
    2.8313   -3.1828    0.0009 H   0  0  0  0  0  0  0  0  0  0  0  0
  1  2  2  0  0  0  0
  2  3  1  0  0  0  0
  3  4  2  0  0  0  0
  4  5  1  0  0  0  0
  5  6  2  0  0  0  0
  6  7  1  0  0  0  0
  7  8  2  0  0  0  0
  8  9  1  0  0  0  0
  9 10  2  0  0  0  0
 10 11  1  0  0  0  0
 11 12  2  0  0  0  0
 12 13  1  0  0  0  0
 13 14  2  0  0  0  0
 14 15  1  0  0  0  0
 15 16  2  0  0  0  0
 16 17  1  0  0  0  0
 17 18  2  0  0  0  0
 18 19  1  0  0  0  0
 14 19  1  0  0  0  0
 19 20  2  0  0  0  0
 20 21  1  0  0  0  0
 12 21  1  0  0  0  0
 21 22  2  0  0  0  0
 22 23  1  0  0  0  0
 10 23  1  0  0  0  0
 23 24  2  0  0  0  0
  7 24  1  0  0  0  0
 24 25  1  0  0  0  0
 25 26  2  0  0  0  0
  1 26  1  0  0  0  0
  5 26  1  0  0  0  0
 25 27  1  0  0  0  0
 27 28  2  0  0  0  0
 22 28  1  0  0  0  0
 28 29  1  0  0  0  0
 29 30  2  0  0  0  0
 20 30  1  0  0  0  0
  1 31  1  0  0  0  0
  2 32  1  0  0  0  0
  3 33  1  0  0  0  0
  4 34  1  0  0  0  0
  6 35  1  0  0  0  0
  8 36  1  0  0  0  0
  9 37  1  0  0  0  0
 11 38  1  0  0  0  0
 13 39  1  0  0  0  0
 15 40  1  0  0  0  0
 16 41  1  0  0  0  0
 17 42  1  0  0  0  0
 18 43  1  0  0  0  0
 27 44  1  0  0  0  0
 29 45  1  0  0  0  0
 30 46  1  0  0  0  0
M  END
$$$$
