C10H8
APtclcactv01171906283D 0   0.00000     0.00000
 
 18 19  0  0  0  0  0  0  0  0999 V2000
   -1.2248   -1.3976   -0.0002 C   0  0  0  0  0  0  0  0  0  0  0  0
   -2.3916   -0.6968   -0.0001 C   0  0  0  0  0  0  0  0  0  0  0  0
   -2.3916    0.6968   -0.0002 C   0  0  0  0  0  0  0  0  0  0  0  0
   -1.2248    1.3976    0.0001 C   0  0  0  0  0  0  0  0  0  0  0  0
    0.0000    0.7087    0.0004 C   0  0  0  0  0  0  0  0  0  0  0  0
    1.2248    1.3976    0.0001 C   0  0  0  0  0  0  0  0  0  0  0  0
    2.3916    0.6968    0.0000 C   0  0  0  0  0  0  0  0  0  0  0  0
    2.3916   -0.6968   -0.0002 C   0  0  0  0  0  0  0  0  0  0  0  0
    1.2248   -1.3976    0.0000 C   0  0  0  0  0  0  0  0  0  0  0  0
   -0.0000   -0.7087    0.0001 C   0  0  0  0  0  0  0  0  0  0  0  0
   -1.2402   -2.4775    0.0040 H   0  0  0  0  0  0  0  0  0  0  0  0
   -3.3315   -1.2287   -0.0003 H   0  0  0  0  0  0  0  0  0  0  0  0
   -3.3315    1.2287   -0.0008 H   0  0  0  0  0  0  0  0  0  0  0  0
   -1.2402    2.4775   -0.0003 H   0  0  0  0  0  0  0  0  0  0  0  0
    1.2403    2.4775   -0.0004 H   0  0  0  0  0  0  0  0  0  0  0  0
    3.3315    1.2287   -0.0002 H   0  0  0  0  0  0  0  0  0  0  0  0
    3.3315   -1.2287   -0.0009 H   0  0  0  0  0  0  0  0  0  0  0  0
    1.2402   -2.4775   -0.0005 H   0  0  0  0  0  0  0  0  0  0  0  0
  1  2  2  0  0  0  0
  2  3  1  0  0  0  0
  3  4  2  0  0  0  0
  4  5  1  0  0  0  0
  5  6  2  0  0  0  0
  6  7  1  0  0  0  0
  7  8  2  0  0  0  0
  8  9  1  0  0  0  0
  9 10  2  0  0  0  0
  1 10  1  0  0  0  0
  5 10  1  0  0  0  0
  1 11  1  0  0  0  0
  2 12  1  0  0  0  0
  3 13  1  0  0  0  0
  4 14  1  0  0  0  0
  6 15  1  0  0  0  0
  7 16  1  0  0  0  0
  8 17  1  0  0  0  0
  9 18  1  0  0  0  0
M  END
$$$$
