C26H16
APtclcactv01171906293D 0   0.00000     0.00000
 
 42 47  0  0  0  0  0  0  0  0999 V2000
    1.2792   -2.6361   -0.5171 C   0  0  0  0  0  0  0  0  0  0  0  0
    1.9950   -3.7946   -0.4364 C   0  0  0  0  0  0  0  0  0  0  0  0
    3.3299   -3.7838   -0.0427 C   0  0  0  0  0  0  0  0  0  0  0  0
    3.9642   -2.6072    0.2196 C   0  0  0  0  0  0  0  0  0  0  0  0
    3.2603   -1.3991    0.1050 C   0  0  0  0  0  0  0  0  0  0  0  0
    3.9238   -0.1610    0.1903 C   0  0  0  0  0  0  0  0  0  0  0  0
    3.2276    0.9989    0.1482 C   0  0  0  0  0  0  0  0  0  0  0  0
    1.8240    1.0163    0.0758 C   0  0  0  0  0  0  0  0  0  0  0  0
    1.1134    2.3056    0.0221 C   0  0  0  0  0  0  0  0  0  0  0  0
    1.8266    3.5065    0.0345 C   0  0  0  0  0  0  0  0  0  0  0  0
    1.1550    4.7075   -0.0254 C   0  0  0  0  0  0  0  0  0  0  0  0
   -0.2294    4.7354   -0.1015 C   0  0  0  0  0  0  0  0  0  0  0  0
   -0.9516    3.5623   -0.1128 C   0  0  0  0  0  0  0  0  0  0  0  0
   -0.2906    2.3349   -0.0445 C   0  0  0  0  0  0  0  0  0  0  0  0
   -1.0540    1.0731   -0.0236 C   0  0  0  0  0  0  0  0  0  0  0  0
   -0.3644   -0.1648    0.0769 C   0  0  0  0  0  0  0  0  0  0  0  0
    1.1044   -0.1868    0.0280 C   0  0  0  0  0  0  0  0  0  0  0  0
    1.8593   -1.4254   -0.1266 C   0  0  0  0  0  0  0  0  0  0  0  0
   -1.0821   -1.3422    0.2336 C   0  0  0  0  0  0  0  0  0  0  0  0
   -2.4782   -1.3352    0.1633 C   0  0  0  0  0  0  0  0  0  0  0  0
   -3.2345   -2.5159    0.2851 C   0  0  0  0  0  0  0  0  0  0  0  0
   -4.5894   -2.4550    0.1850 C   0  0  0  0  0  0  0  0  0  0  0  0
   -5.2548   -1.2494   -0.0285 C   0  0  0  0  0  0  0  0  0  0  0  0
   -4.5825   -0.0723   -0.1404 C   0  0  0  0  0  0  0  0  0  0  0  0
   -3.1796   -0.0657   -0.0380 C   0  0  0  0  0  0  0  0  0  0  0  0
   -2.4368    1.1164   -0.1067 C   0  0  0  0  0  0  0  0  0  0  0  0
    0.2833   -2.6630   -0.9343 H   0  0  0  0  0  0  0  0  0  0  0  0
    1.5180   -4.7327   -0.6790 H   0  0  0  0  0  0  0  0  0  0  0  0
    3.8664   -4.7146    0.0578 H   0  0  0  0  0  0  0  0  0  0  0  0
    5.0031   -2.6050    0.5151 H   0  0  0  0  0  0  0  0  0  0  0  0
    4.9986   -0.1355    0.2877 H   0  0  0  0  0  0  0  0  0  0  0  0
    3.7724    1.9308    0.1679 H   0  0  0  0  0  0  0  0  0  0  0  0
    2.9048    3.5027    0.0895 H   0  0  0  0  0  0  0  0  0  0  0  0
    1.7114    5.6330   -0.0129 H   0  0  0  0  0  0  0  0  0  0  0  0
   -0.7454    5.6829   -0.1501 H   0  0  0  0  0  0  0  0  0  0  0  0
   -2.0288    3.6028   -0.1733 H   0  0  0  0  0  0  0  0  0  0  0  0
   -0.5801   -2.2684    0.4693 H   0  0  0  0  0  0  0  0  0  0  0  0
   -2.7436   -3.4626    0.4548 H   0  0  0  0  0  0  0  0  0  0  0  0
   -5.1649   -3.3649    0.2717 H   0  0  0  0  0  0  0  0  0  0  0  0
   -6.3318   -1.2495   -0.1083 H   0  0  0  0  0  0  0  0  0  0  0  0
   -5.1214    0.8489   -0.3058 H   0  0  0  0  0  0  0  0  0  0  0  0
   -2.9487    2.0597   -0.2264 H   0  0  0  0  0  0  0  0  0  0  0  0
  1  2  2  0  0  0  0
  2  3  1  0  0  0  0
  3  4  2  0  0  0  0
  4  5  1  0  0  0  0
  5  6  1  0  0  0  0
  6  7  2  0  0  0  0
  7  8  1  0  0  0  0
  8  9  2  0  0  0  0
  9 10  1  0  0  0  0
 10 11  2  0  0  0  0
 11 12  1  0  0  0  0
 12 13  2  0  0  0  0
 13 14  1  0  0  0  0
  9 14  1  0  0  0  0
 14 15  2  0  0  0  0
 15 16  1  0  0  0  0
 16 17  2  0  0  0  0
  8 17  1  0  0  0  0
 17 18  1  0  0  0  0
  1 18  1  0  0  0  0
  5 18  2  0  0  0  0
 16 19  1  0  0  0  0
 19 20  2  0  0  0  0
 20 21  1  0  0  0  0
 21 22  2  0  0  0  0
 22 23  1  0  0  0  0
 23 24  2  0  0  0  0
 24 25  1  0  0  0  0
 20 25  1  0  0  0  0
 25 26  2  0  0  0  0
 15 26  1  0  0  0  0
  1 27  1  0  0  0  0
  2 28  1  0  0  0  0
  3 29  1  0  0  0  0
  4 30  1  0  0  0  0
  6 31  1  0  0  0  0
  7 32  1  0  0  0  0
 10 33  1  0  0  0  0
 11 34  1  0  0  0  0
 12 35  1  0  0  0  0
 13 36  1  0  0  0  0
 19 37  1  0  0  0  0
 21 38  1  0  0  0  0
 22 39  1  0  0  0  0
 23 40  1  0  0  0  0
 24 41  1  0  0  0  0
 26 42  1  0  0  0  0
M  END
$$$$
