C24H14
APtclcactv01171906283D 0   0.00000     0.00000
 
 38 43  0  0  0  0  0  0  0  0999 V2000
   -3.2608   -1.3213   -0.4021 C   0  0  0  0  0  0  0  0  0  0  0  0
   -4.6103   -1.5253   -0.4309 C   0  0  0  0  0  0  0  0  0  0  0  0
   -5.4953   -0.4834   -0.1758 C   0  0  0  0  0  0  0  0  0  0  0  0
   -5.0327    0.7749    0.0685 C   0  0  0  0  0  0  0  0  0  0  0  0
   -3.6529    1.0226    0.0610 C   0  0  0  0  0  0  0  0  0  0  0  0
   -3.1563    2.3382    0.1817 C   0  0  0  0  0  0  0  0  0  0  0  0
   -1.8322    2.5864    0.1795 C   0  0  0  0  0  0  0  0  0  0  0  0
   -0.8787    1.5435    0.0982 C   0  0  0  0  0  0  0  0  0  0  0  0
    0.4925    1.8845    0.0430 C   0  0  0  0  0  0  0  0  0  0  0  0
    1.4572    0.9059    0.0197 C   0  0  0  0  0  0  0  0  0  0  0  0
    2.9319    0.8448   -0.0485 C   0  0  0  0  0  0  0  0  0  0  0  0
    3.9117    1.8312   -0.1091 C   0  0  0  0  0  0  0  0  0  0  0  0
    5.2445    1.4825   -0.1734 C   0  0  0  0  0  0  0  0  0  0  0  0
    5.6199    0.1490   -0.1798 C   0  0  0  0  0  0  0  0  0  0  0  0
    4.6661   -0.8449   -0.1155 C   0  0  0  0  0  0  0  0  0  0  0  0
    3.3142   -0.5172   -0.0417 C   0  0  0  0  0  0  0  0  0  0  0  0
    2.0985   -1.3484    0.0628 C   0  0  0  0  0  0  0  0  0  0  0  0
    1.8050   -2.7024    0.1362 C   0  0  0  0  0  0  0  0  0  0  0  0
    0.4825   -3.1075    0.2858 C   0  0  0  0  0  0  0  0  0  0  0  0
   -0.5682   -2.2268    0.3388 C   0  0  0  0  0  0  0  0  0  0  0  0
   -0.3253   -0.8612    0.1673 C   0  0  0  0  0  0  0  0  0  0  0  0
   -1.3209    0.1990    0.0672 C   0  0  0  0  0  0  0  0  0  0  0  0
   -2.7475   -0.0594   -0.0882 C   0  0  0  0  0  0  0  0  0  0  0  0
    1.0138   -0.4715    0.0867 C   0  0  0  0  0  0  0  0  0  0  0  0
   -2.6043   -2.1350   -0.6704 H   0  0  0  0  0  0  0  0  0  0  0  0
   -4.9950   -2.5101   -0.6526 H   0  0  0  0  0  0  0  0  0  0  0  0
   -6.5580   -0.6728   -0.1695 H   0  0  0  0  0  0  0  0  0  0  0  0
   -5.7259    1.5792    0.2681 H   0  0  0  0  0  0  0  0  0  0  0  0
   -3.8507    3.1598    0.2761 H   0  0  0  0  0  0  0  0  0  0  0  0
   -1.4884    3.6087    0.2384 H   0  0  0  0  0  0  0  0  0  0  0  0
    0.7840    2.9241    0.0185 H   0  0  0  0  0  0  0  0  0  0  0  0
    3.6279    2.8734   -0.1050 H   0  0  0  0  0  0  0  0  0  0  0  0
    6.0002    2.2530   -0.2161 H   0  0  0  0  0  0  0  0  0  0  0  0
    6.6662   -0.1143   -0.2324 H   0  0  0  0  0  0  0  0  0  0  0  0
    4.9683   -1.8816   -0.1224 H   0  0  0  0  0  0  0  0  0  0  0  0
    2.5964   -3.4339    0.0759 H   0  0  0  0  0  0  0  0  0  0  0  0
    0.2725   -4.1641    0.3627 H   0  0  0  0  0  0  0  0  0  0  0  0
   -1.5597   -2.5968    0.5540 H   0  0  0  0  0  0  0  0  0  0  0  0
  1  2  2  0  0  0  0
  2  3  1  0  0  0  0
  3  4  2  0  0  0  0
  4  5  1  0  0  0  0
  5  6  1  0  0  0  0
  6  7  2  0  0  0  0
  7  8  1  0  0  0  0
  8  9  2  0  0  0  0
  9 10  1  0  0  0  0
 10 11  1  0  0  0  0
 11 12  1  0  0  0  0
 12 13  2  0  0  0  0
 13 14  1  0  0  0  0
 14 15  2  0  0  0  0
 15 16  1  0  0  0  0
 11 16  2  0  0  0  0
 16 17  1  0  0  0  0
 17 18  2  0  0  0  0
 18 19  1  0  0  0  0
 19 20  2  0  0  0  0
 20 21  1  0  0  0  0
 21 22  2  0  0  0  0
  8 22  1  0  0  0  0
 22 23  1  0  0  0  0
  1 23  1  0  0  0  0
  5 23  2  0  0  0  0
 21 24  1  0  0  0  0
 10 24  2  0  0  0  0
 17 24  1  0  0  0  0
  1 25  1  0  0  0  0
  2 26  1  0  0  0  0
  3 27  1  0  0  0  0
  4 28  1  0  0  0  0
  6 29  1  0  0  0  0
  7 30  1  0  0  0  0
  9 31  1  0  0  0  0
 12 32  1  0  0  0  0
 13 33  1  0  0  0  0
 14 34  1  0  0  0  0
 15 35  1  0  0  0  0
 18 36  1  0  0  0  0
 19 37  1  0  0  0  0
 20 38  1  0  0  0  0
M  END
$$$$
